data/nesta/nesta_case2746wop_mp__api.m
%%%%%%%%%%%%%%%%%%%%%%%%%%%%%%%%%%%%%%%%%%%%%%%%%%%%%%%%%%%%%%%%%%%%%%%%%%%
%%%%                                                                  %%%%%
%%%%      NICTA Energy System Test Case Archive (NESTA) - v0.1.5      %%%%%
%%%%            Optimal Power Flow - Active Power Increase            %%%%%
%%%%                       30 - October - 2014                        %%%%%
%%%%                                                                  %%%%%
%%%%%%%%%%%%%%%%%%%%%%%%%%%%%%%%%%%%%%%%%%%%%%%%%%%%%%%%%%%%%%%%%%%%%%%%%%%
function mpc = nesta_case2746wop_mp__api
mpc.version = '2';
mpc.baseMVA = 100.0;

%% area data
%	area	refbus
mpc.areas = [
	1	 18;
];

%% bus data
%	bus_i	type	Pd	Qd	Gs	Bs	area	Vm	Va	baseKV	zone	Vmax	Vmin
mpc.bus = [
	1	 1	 0.00	 0.00	 0.0	 0.0	 1	     1.1003	    -5.8041	 220.0	 1	     1.1100	     0.9500;
	2	 1	 0.00	 0.00	 0.0	 0.0	 1	     1.1040	    -2.5081	 220.0	 1	     1.1100	     0.9500;
	3	 1	 0.00	 0.00	 0.0	 0.0	 1	     1.0727	   -22.6800	 220.0	 1	     1.1100	     0.9500;
	4	 1	 0.00	 0.00	 0.0	 0.0	 1	     1.0979	    -8.8291	 220.0	 1	     1.1100	     0.9500;
	5	 1	 0.00	 0.00	 0.0	 0.0	 1	     1.0979	    -8.8358	 220.0	 1	     1.1100	     0.9500;
	6	 1	 0.00	 0.00	 0.0	 0.0	 1	     1.0788	   -16.5036	 220.0	 1	     1.1100	     0.9500;
	7	 1	 0.00	 0.00	 0.0	 0.0	 1	     1.0788	   -16.4978	 220.0	 1	     1.1100	     0.9500;
	8	 1	 0.00	 0.00	 0.0	 -50.0	 1	     1.0296	   -14.9436	 400.0	 1	     1.0500	     0.9500;
	9	 1	 0.00	 0.00	 0.0	 0.0	 1	     1.0296	   -14.9452	 400.0	 1	     1.0500	     0.9500;
	10	 1	 0.00	 0.00	 0.0	 0.0	 1	     1.0765	   -16.8720	 220.0	 1	     1.1100	     0.9500;
	11	 1	 0.00	 0.00	 0.0	 0.0	 1	     1.0764	   -16.8851	 220.0	 1	     1.1100	     0.9500;
	12	 1	 0.00	 0.00	 0.0	 0.0	 1	     1.0764	   -16.8786	 220.0	 1	     1.1100	     0.9500;
	13	 1	 0.00	 0.00	 0.0	 -50.0	 1	     1.0247	   -13.1675	 400.0	 1	     1.0500	     0.9500;
	14	 1	 0.00	 0.00	 0.0	 0.0	 1	     1.0248	   -13.1622	 400.0	 1	     1.0500	     0.9500;
	15	 1	 0.00	 0.00	 0.0	 0.0	 1	     1.0391	   -16.2173	 400.0	 1	     1.0500	     0.9500;
	16	 1	 0.00	 0.00	 0.0	 0.0	 1	     1.0391	   -16.2173	 400.0	 1	     1.0500	     0.9500;
	17	 2	 2.43	 31.00	 0.0	 0.0	 1	     1.1007	   -18.6346	 220.0	 1	     1.1100	     0.9500;
	18	 2	 10.23	 40.00	 0.0	 0.0	 1	     1.1009	   -18.6368	 220.0	 1	     1.1100	     0.9500;
	19	 1	 0.00	 0.00	 0.0	 0.0	 1	     1.0998	    -8.0294	 220.0	 1	     1.1100	     0.9500;
	20	 1	 0.00	 0.00	 0.0	 0.0	 1	     1.0998	    -8.0257	 220.0	 1	     1.1100	     0.9500;
	21	 1	 0.00	 0.00	 0.0	 0.0	 1	     1.0908	   -18.5795	 220.0	 1	     1.1100	     0.9500;
	22	 1	 0.00	 0.00	 0.0	 0.0	 1	     1.0908	   -18.5795	 220.0	 1	     1.1100	     0.9500;
	23	 1	 0.00	 0.00	 0.0	 0.0	 1	     1.0768	   -16.8287	 220.0	 1	     1.1100	     0.9500;
	24	 1	 0.00	 0.00	 0.0	 0.0	 1	     1.1002	    -5.9666	 220.0	 1	     1.1100	     0.9500;
	25	 1	 0.00	 0.00	 0.0	 -50.0	 1	     1.0209	   -17.6458	 400.0	 1	     1.0500	     0.9500;
	26	 2	 30.13	 42.05	 0.0	 0.0	 1	     1.1094	    -5.6168	 220.0	 1	     1.1100	     0.9500;
	27	 2	 89.67	 122.06	 0.0	 0.0	 1	     1.1100	    -2.2753	 220.0	 1	     1.1100	     0.9500;
	28	 3	 47.24	 80.00	 0.0	 0.0	 1	     1.0484	    -4.4130	 400.0	 1	     1.0500	     0.9500;
	29	 2	 63.40	 90.00	 0.0	 0.0	 1	     1.0484	    -4.4039	 400.0	 1	     1.0500	     0.9500;
	30	 1	 0.00	 0.00	 0.0	 0.0	 1	     1.0806	   -18.0483	 220.0	 1	     1.1100	     0.9500;
	31	 1	 0.00	 0.00	 0.0	 0.0	 1	     1.0490	    -5.4090	 400.0	 1	     1.0500	     0.9500;
	32	 1	 0.00	 0.00	 0.0	 0.0	 1	     1.0751	   -17.0320	 220.0	 1	     1.1100	     0.9500;
	33	 1	 0.00	 0.00	 0.0	 0.0	 1	     1.1002	    -5.9658	 220.0	 1	     1.1100	     0.9500;
	34	 1	 0.00	 0.00	 0.0	 0.0	 1	     1.1001	   -11.7004	 220.0	 1	     1.1100	     0.9500;
	35	 1	 0.00	 0.00	 0.0	 0.0	 1	     1.0930	   -14.6722	 220.0	 2	     1.1100	     0.9500;
	36	 1	 0.00	 0.00	 0.0	 0.0	 1	     1.0813	   -15.0952	 220.0	 2	     1.1100	     0.9500;
	37	 1	 0.00	 0.00	 0.0	 0.0	 1	     1.0905	   -14.1161	 220.0	 2	     1.1100	     0.9500;
	38	 1	 0.00	 0.00	 0.0	 0.0	 1	     1.0905	   -14.1190	 220.0	 2	     1.1100	     0.9500;
	39	 1	 0.00	 0.00	 0.0	 0.0	 1	     1.0853	   -15.7179	 220.0	 2	     1.1100	     0.9500;
	40	 1	 0.00	 0.00	 0.0	 0.0	 1	     1.1100	   -13.4257	 220.0	 2	     1.1100	     0.9500;
	41	 1	 0.00	 0.00	 0.0	 0.0	 1	     1.1099	   -13.4287	 220.0	 2	     1.1100	     0.9500;
	42	 1	 0.00	 0.00	 0.0	 0.0	 1	     1.0264	   -13.4880	 400.0	 2	     1.0500	     0.9500;
	43	 2	 12.00	 0.00	 0.0	 0.0	 1	     1.0984	   -13.3077	 220.0	 2	     1.1100	     0.9500;
	44	 2	 24.00	 0.00	 0.0	 0.0	 1	     1.0983	   -13.2924	 220.0	 2	     1.1100	     0.9500;
	45	 2	 20.00	 0.00	 0.0	 0.0	 1	     1.0326	   -13.2325	 400.0	 2	     1.0500	     0.9500;
	46	 1	 0.00	 0.00	 0.0	 0.0	 1	     1.0326	   -13.2342	 400.0	 2	     1.0500	     0.9500;
	47	 1	 0.00	 0.00	 0.0	 0.0	 1	     1.1087	   -13.8560	 220.0	 2	     1.1100	     0.9500;
	48	 1	 0.00	 0.00	 0.0	 0.0	 1	     1.0285	   -17.1783	 400.0	 2	     1.0500	     0.9500;
	49	 1	 0.00	 0.00	 0.0	 0.0	 1	     1.0284	   -17.1839	 400.0	 2	     1.0500	     0.9500;
	50	 1	 0.00	 0.00	 0.0	 0.0	 1	     1.0284	   -13.7158	 400.0	 2	     1.0500	     0.9500;
	51	 1	 0.00	 0.00	 0.0	 0.0	 1	     1.0854	   -14.8272	 220.0	 2	     1.1100	     0.9500;
	52	 1	 0.00	 0.00	 0.0	 0.0	 1	     1.0854	   -14.8241	 220.0	 2	     1.1100	     0.9500;
	53	 1	 0.00	 0.00	 0.0	 0.0	 1	     1.0368	   -13.9754	 400.0	 2	     1.0500	     0.9500;
	54	 1	 0.00	 0.00	 0.0	 0.0	 1	     1.0368	   -13.9757	 400.0	 2	     1.0500	     0.9500;
	55	 2	 12.00	 0.00	 0.0	 0.0	 1	     1.0934	   -13.2417	 220.0	 2	     1.1100	     0.9500;
	56	 2	 12.00	 0.00	 0.0	 0.0	 1	     1.0933	   -13.2414	 220.0	 2	     1.1100	     0.9500;
	57	 2	 12.00	 0.00	 0.0	 0.0	 1	     1.0399	   -13.6026	 400.0	 2	     1.0500	     0.9500;
	58	 2	 12.00	 0.00	 0.0	 0.0	 1	     1.0399	   -13.6073	 400.0	 2	     1.0500	     0.9500;
	59	 2	 180.11	 62.00	 0.0	 0.0	 1	     1.0905	   -14.3408	 220.0	 2	     1.1100	     0.9500;
	60	 1	 0.00	 0.00	 0.0	 0.0	 1	     1.0906	   -14.3368	 220.0	 2	     1.1100	     0.9500;
	61	 1	 0.00	 0.00	 0.0	 0.0	 1	     1.1039	   -13.9786	 220.0	 2	     1.1100	     0.9500;
	62	 1	 0.00	 0.00	 0.0	 0.0	 1	     1.0972	   -14.1224	 220.0	 2	     1.1100	     0.9500;
	63	 1	 0.00	 0.00	 0.0	 0.0	 1	     1.0972	   -14.1241	 220.0	 2	     1.1100	     0.9500;
	64	 1	 0.00	 0.00	 0.0	 0.0	 1	     1.0393	   -14.8345	 400.0	 2	     1.0500	     0.9500;
	65	 1	 0.00	 0.00	 0.0	 0.0	 1	     1.0393	   -14.8453	 400.0	 2	     1.0500	     0.9500;
	66	 1	 0.00	 0.00	 0.0	 0.0	 1	     1.0886	   -14.8515	 220.0	 2	     1.1100	     0.9500;
	67	 1	 0.00	 0.00	 0.0	 0.0	 1	     1.0900	   -14.7013	 220.0	 2	     1.1100	     0.9500;
	68	 1	 0.00	 0.00	 0.0	 0.0	 1	     1.0847	   -14.1358	 220.0	 2	     1.1100	     0.9500;
	69	 1	 0.00	 0.00	 0.0	 0.0	 1	     1.0985	    -9.2101	 220.0	 3	     1.1100	     0.9500;
	70	 1	 6.80	 0.00	 0.0	 0.0	 1	     1.0976	   -14.3956	 220.0	 3	     1.1100	     0.9500;
	71	 1	 11.95	 2.43	 0.0	 0.0	 1	     1.0975	   -14.4034	 220.0	 3	     1.1100	     0.9500;
	72	 1	 0.00	 0.00	 0.0	 0.0	 1	     1.0947	   -13.2037	 220.0	 3	     1.1100	     0.9500;
	73	 1	 0.00	 0.00	 0.0	 0.0	 1	     1.0947	   -13.1883	 220.0	 3	     1.1100	     0.9500;
	74	 1	 0.00	 0.00	 0.0	 0.0	 1	     1.1052	   -10.7408	 220.0	 3	     1.1100	     0.9500;
	75	 1	 0.00	 0.00	 0.0	 0.0	 1	     1.1051	   -10.7458	 220.0	 3	     1.1100	     0.9500;
	76	 1	 0.00	 0.00	 0.0	 0.0	 1	     1.0978	   -17.5822	 220.0	 3	     1.1100	     0.9500;
	77	 1	 0.00	 0.00	 0.0	 0.0	 1	     1.0977	   -17.5941	 220.0	 3	     1.1100	     0.9500;
	78	 2	 28.48	 70.00	 0.0	 0.0	 1	     1.0965	   -12.1361	 220.0	 3	     1.1100	     0.9500;
	79	 2	 9.49	 21.00	 0.0	 0.0	 1	     1.0979	   -12.7134	 220.0	 3	     1.1100	     0.9500;
	80	 1	 10.64	 1.38	 0.0	 0.0	 1	     1.0932	   -12.5077	 220.0	 3	     1.1100	     0.9500;
	81	 1	 0.00	 0.00	 0.0	 0.0	 1	     1.0932	   -12.5111	 220.0	 3	     1.1100	     0.9500;
	82	 2	 36.92	 108.00	 0.0	 0.0	 1	     1.0444	    -6.4721	 400.0	 3	     1.0500	     0.9500;
	83	 1	 0.00	 0.00	 0.0	 0.0	 1	     1.1049	   -10.2935	 220.0	 3	     1.1100	     0.9500;
	84	 1	 0.00	 0.00	 0.0	 0.0	 1	     1.1027	   -11.3677	 220.0	 3	     1.1100	     0.9500;
	85	 1	 0.00	 0.00	 0.0	 0.0	 1	     1.1026	   -11.3770	 220.0	 3	     1.1100	     0.9500;
	86	 1	 46.57	 10.56	 0.0	 0.0	 1	     1.0984	    -9.2864	 220.0	 3	     1.1100	     0.9500;
	87	 1	 0.00	 0.00	 0.0	 0.0	 1	     1.0984	    -9.2915	 220.0	 3	     1.1100	     0.9500;
	88	 1	 0.00	 0.00	 0.0	 0.0	 1	     1.0938	   -11.3077	 220.0	 3	     1.1100	     0.9500;
	89	 1	 0.00	 0.00	 0.0	 0.0	 1	     1.0938	   -11.3145	 220.0	 3	     1.1100	     0.9500;
	90	 1	 0.00	 0.00	 0.0	 0.0	 1	     1.1007	    -8.8485	 220.0	 3	     1.1100	     0.9500;
	91	 1	 0.00	 0.00	 0.0	 0.0	 1	     1.1007	    -8.8443	 220.0	 3	     1.1100	     0.9500;
	92	 1	 0.00	 0.00	 0.0	 0.0	 1	     1.0495	    -6.6628	 400.0	 3	     1.0500	     0.9500;
	93	 1	 0.00	 0.00	 0.0	 0.0	 1	     1.0495	    -6.6630	 400.0	 3	     1.0500	     0.9500;
	94	 1	 0.00	 0.00	 0.0	 0.0	 1	     1.1018	   -10.6984	 220.0	 3	     1.1100	     0.9500;
	95	 1	 0.00	 0.00	 0.0	 0.0	 1	     1.1019	   -10.6985	 220.0	 3	     1.1100	     0.9500;
	96	 1	 0.00	 0.00	 0.0	 0.0	 1	     1.1058	   -10.4798	 220.0	 3	     1.1100	     0.9500;
	97	 1	 0.00	 0.00	 0.0	 0.0	 1	     1.1058	   -10.4789	 220.0	 3	     1.1100	     0.9500;
	98	 1	 18.05	 6.32	 0.0	 0.0	 1	     1.0963	   -12.4278	 220.0	 3	     1.1100	     0.9500;
	99	 1	 0.00	 0.00	 0.0	 0.0	 1	     1.0963	   -12.4237	 220.0	 3	     1.1100	     0.9500;
	100	 1	 0.00	 0.00	 0.0	 0.0	 1	     1.0977	   -14.3778	 220.0	 3	     1.1100	     0.9500;
	101	 1	 0.00	 0.00	 0.0	 0.0	 1	     1.0977	   -14.3796	 220.0	 3	     1.1100	     0.9500;
	102	 1	 0.00	 0.00	 0.0	 0.0	 1	     1.0969	   -16.8006	 220.0	 3	     1.1100	     0.9500;
	103	 1	 0.00	 0.00	 0.0	 0.0	 1	     1.0968	   -16.7885	 220.0	 3	     1.1100	     0.9500;
	104	 2	 14.77	 40.00	 0.0	 0.0	 1	     1.1059	   -10.7375	 220.0	 3	     1.1100	     0.9500;
	105	 2	 0.00	 0.00	 0.0	 0.0	 1	     1.1059	   -10.7501	 220.0	 3	     1.1100	     0.9500;
	106	 2	 7.38	 18.00	 0.0	 0.0	 1	     1.0999	   -10.5534	 220.0	 3	     1.1100	     0.9500;
	107	 2	 8.44	 15.00	 0.0	 0.0	 1	     1.0997	   -10.5558	 220.0	 3	     1.1100	     0.9500;
	108	 1	 55.62	 17.14	 0.0	 0.0	 1	     1.0957	   -11.9483	 220.0	 3	     1.1100	     0.9500;
	109	 1	 59.54	 10.90	 0.0	 0.0	 1	     1.0957	   -11.9615	 220.0	 3	     1.1100	     0.9500;
	110	 1	 0.00	 0.00	 0.0	 0.0	 1	     1.0939	   -13.5682	 220.0	 3	     1.1100	     0.9500;
	111	 1	 0.00	 0.00	 0.0	 0.0	 1	     1.0939	   -11.6207	 220.0	 3	     1.1100	     0.9500;
	112	 1	 0.00	 0.00	 0.0	 0.0	 1	     1.0939	   -11.6251	 220.0	 3	     1.1100	     0.9500;
	113	 1	 0.00	 0.00	 0.0	 0.0	 1	     1.0929	   -12.7468	 220.0	 3	     1.1100	     0.9500;
	114	 1	 0.00	 0.00	 0.0	 0.0	 1	     1.0929	   -12.7422	 220.0	 3	     1.1100	     0.9500;
	115	 1	 0.00	 0.00	 0.0	 0.0	 1	     1.0401	    -9.1866	 400.0	 3	     1.0500	     0.9500;
	116	 2	 0.00	 0.00	 0.0	 0.0	 1	     1.0958	   -12.4857	 220.0	 3	     1.1100	     0.9500;
	117	 2	 8.44	 15.00	 0.0	 0.0	 1	     1.0957	   -12.4761	 220.0	 3	     1.1100	     0.9500;
	118	 2	 5.80	 10.00	 0.0	 0.0	 1	     1.0999	   -13.1652	 220.0	 3	     1.1100	     0.9500;
	119	 1	 0.00	 0.00	 0.0	 0.0	 1	     1.0999	   -13.1706	 220.0	 3	     1.1100	     0.9500;
	120	 1	 0.00	 0.00	 0.0	 0.0	 1	     1.0430	   -13.5814	 400.0	 3	     1.0500	     0.9500;
	121	 1	 0.00	 0.00	 0.0	 0.0	 1	     1.0430	   -13.5743	 400.0	 3	     1.0500	     0.9500;
	122	 1	 0.00	 0.00	 0.0	 0.0	 1	     1.0434	    -9.3422	 400.0	 3	     1.0500	     0.9500;
	123	 1	 0.00	 0.00	 0.0	 0.0	 1	     1.0435	    -9.3407	 400.0	 3	     1.0500	     0.9500;
	124	 1	 0.00	 0.00	 0.0	 0.0	 1	     1.0942	   -13.5980	 220.0	 3	     1.1100	     0.9500;
	125	 2	 20.27	 21.47	 0.0	 0.0	 1	     1.1100	    -9.7386	 220.0	 3	     1.1100	     0.9500;
	126	 2	 32.36	 33.60	 0.0	 0.0	 1	     1.1099	    -9.7467	 220.0	 3	     1.1100	     0.9500;
	127	 2	 29.54	 66.00	 0.0	 0.0	 1	     1.0401	    -8.1112	 400.0	 3	     1.0500	     0.9500;
	128	 1	 0.00	 0.00	 0.0	 0.0	 1	     1.0401	    -8.1211	 400.0	 3	     1.0500	     0.9500;
	129	 1	 0.00	 0.00	 0.0	 0.0	 1	     1.0981	    -9.3932	 220.0	 3	     1.1100	     0.9500;
	130	 1	 0.00	 0.00	 0.0	 0.0	 1	     1.0981	    -9.3921	 220.0	 3	     1.1100	     0.9500;
	131	 1	 0.00	 0.00	 0.0	 0.0	 1	     1.0994	    -9.2111	 220.0	 3	     1.1100	     0.9500;
	132	 2	 272.00	 -62.00	 0.0	 0.0	 1	     1.0991	   -18.4134	 220.0	 3	     1.1100	     0.9500;
	133	 2	 266.50	 -24.80	 0.0	 0.0	 1	     1.0970	   -18.3982	 220.0	 3	     1.1100	     0.9500;
	134	 2	 15.75	 12.88	 0.0	 0.0	 1	     1.1065	   -13.4621	 220.0	 4	     1.1100	     0.9500;
	135	 2	 8.45	 6.53	 0.0	 0.0	 1	     1.1064	   -13.4709	 220.0	 4	     1.1100	     0.9500;
	136	 1	 0.00	 0.00	 0.0	 0.0	 1	     1.0815	   -16.2403	 220.0	 4	     1.1100	     0.9500;
	137	 1	 0.00	 0.00	 0.0	 0.0	 1	     1.0845	   -15.7378	 220.0	 4	     1.1100	     0.9500;
	138	 1	 0.00	 0.00	 0.0	 0.0	 1	     1.0450	   -13.3501	 400.0	 4	     1.0500	     0.9500;
	139	 1	 0.00	 0.00	 0.0	 0.0	 1	     1.0450	   -13.3463	 400.0	 4	     1.0500	     0.9500;
	140	 1	 0.00	 0.00	 0.0	 0.0	 1	     1.1045	   -22.5710	 220.0	 4	     1.1100	     0.9500;
	141	 1	 0.00	 0.00	 0.0	 0.0	 1	     1.0845	   -24.9702	 220.0	 4	     1.1100	     0.9500;
	142	 1	 0.00	 0.00	 0.0	 0.0	 1	     1.0845	   -24.9702	 220.0	 4	     1.1100	     0.9500;
	143	 1	 0.00	 0.00	 0.0	 0.0	 1	     1.0868	   -23.5534	 220.0	 4	     1.1100	     0.9500;
	144	 1	 0.00	 0.00	 0.0	 0.0	 1	     1.0905	   -14.9091	 220.0	 4	     1.1100	     0.9500;
	145	 1	 0.00	 0.00	 0.0	 0.0	 1	     1.0905	   -14.9091	 220.0	 4	     1.1100	     0.9500;
	146	 2	 58.29	 6.96	 0.0	 0.0	 1	     1.1011	   -16.8948	 220.0	 4	     1.1100	     0.9500;
	147	 2	 10.63	 8.40	 0.0	 0.0	 1	     1.1011	   -16.9041	 220.0	 4	     1.1100	     0.9500;
	148	 2	 12.13	 6.86	 0.0	 0.0	 1	     1.0848	   -24.0779	 220.0	 4	     1.1100	     0.9500;
	149	 1	 4.67	 1.35	 0.0	 0.0	 1	     1.0848	   -24.0923	 220.0	 4	     1.1100	     0.9500;
	150	 2	 13.33	 6.83	 0.0	 0.0	 1	     1.0209	   -25.7726	 400.0	 4	     1.0500	     0.9500;
	151	 2	 13.08	 10.04	 0.0	 0.0	 1	     1.0209	   -25.7787	 400.0	 4	     1.0500	     0.9500;
	152	 1	 0.00	 0.00	 0.0	 0.0	 1	     1.0895	   -22.6390	 220.0	 4	     1.1100	     0.9500;
	153	 1	 0.00	 0.00	 0.0	 0.0	 1	     1.0822	   -21.6579	 220.0	 4	     1.1100	     0.9500;
	154	 1	 0.00	 0.00	 0.0	 0.0	 1	     1.0823	   -21.6515	 220.0	 4	     1.1100	     0.9500;
	155	 2	 35.44	 44.98	 0.0	 0.0	 1	     1.0891	   -14.0123	 220.0	 4	     1.1100	     0.9500;
	156	 2	 35.69	 45.07	 0.0	 0.0	 1	     1.0889	   -14.0678	 220.0	 4	     1.1100	     0.9500;
	157	 1	 0.00	 0.00	 0.0	 0.0	 1	     1.0891	   -14.0123	 220.0	 4	     1.1100	     0.9500;
	158	 1	 0.00	 0.00	 0.0	 0.0	 1	     1.0341	   -13.0369	 400.0	 4	     1.0500	     0.9500;
	159	 2	 9.16	 17.49	 0.0	 0.0	 1	     1.0340	   -13.0347	 400.0	 4	     1.0500	     0.9500;
	160	 1	 0.00	 0.00	 0.0	 0.0	 1	     1.0843	   -25.0330	 220.0	 4	     1.1100	     0.9500;
	161	 1	 0.00	 0.00	 0.0	 0.0	 1	     1.0843	   -25.0330	 220.0	 4	     1.1100	     0.9500;
	162	 1	 0.00	 0.00	 0.0	 0.0	 1	     1.0500	   -12.5642	 400.0	 4	     1.0500	     0.9500;
	163	 1	 0.00	 0.00	 0.0	 0.0	 1	     1.0484	   -11.6381	 400.0	 4	     1.0500	     0.9500;
	164	 1	 0.00	 0.00	 0.0	 0.0	 1	     1.0484	   -11.6443	 400.0	 4	     1.0500	     0.9500;
	165	 2	 5.80	 9.59	 0.0	 0.0	 1	     1.1008	   -17.1387	 220.0	 4	     1.1100	     0.9500;
	166	 2	 10.65	 4.89	 0.0	 0.0	 1	     1.1007	   -17.1547	 220.0	 4	     1.1100	     0.9500;
	167	 1	 15.15	 13.62	 0.0	 0.0	 1	     1.1008	   -17.1400	 220.0	 4	     1.1100	     0.9500;
	168	 1	 0.00	 0.00	 0.0	 0.0	 1	     1.1079	   -28.1274	 220.0	 4	     1.1100	     0.9500;
	169	 1	 0.00	 0.00	 0.0	 0.0	 1	     1.0873	   -25.0670	 220.0	 4	     1.1100	     0.9500;
	170	 1	 0.00	 0.00	 0.0	 0.0	 1	     1.1100	   -23.5590	 220.0	 4	     1.1100	     0.9500;
	171	 1	 0.00	 0.00	 0.0	 0.0	 1	     1.1099	   -23.5582	 220.0	 4	     1.1100	     0.9500;
	172	 1	 0.00	 0.00	 0.0	 0.0	 1	     0.9640	   -24.6383	 400.0	 4	     1.0500	     0.9500;
	173	 1	 0.00	 0.00	 0.0	 0.0	 1	     0.9640	   -24.6383	 400.0	 4	     1.0500	     0.9500;
	174	 1	 0.00	 0.00	 0.0	 0.0	 1	     1.0697	   -20.9498	 220.0	 4	     1.1100	     0.9500;
	175	 1	 0.00	 0.00	 0.0	 0.0	 1	     1.0697	   -20.9479	 220.0	 4	     1.1100	     0.9500;
	176	 1	 0.00	 0.00	 0.0	 0.0	 1	     1.1083	   -23.7926	 220.0	 4	     1.1100	     0.9500;
	177	 1	 0.00	 0.00	 0.0	 0.0	 1	     1.0860	   -15.6782	 220.0	 4	     1.1100	     0.9500;
	178	 1	 0.00	 0.00	 0.0	 0.0	 1	     1.0860	   -15.6731	 220.0	 4	     1.1100	     0.9500;
	179	 1	 0.00	 0.00	 0.0	 0.0	 1	     1.0917	   -14.6837	 220.0	 4	     1.1100	     0.9500;
	180	 1	 0.00	 0.00	 0.0	 0.0	 1	     1.0917	   -14.6837	 220.0	 4	     1.1100	     0.9500;
	181	 1	 0.00	 0.00	 0.0	 0.0	 1	     1.0678	   -21.7612	 220.0	 4	     1.1100	     0.9500;
	182	 1	 0.00	 0.00	 0.0	 0.0	 1	     1.0639	   -24.7349	 220.0	 5	     1.1100	     0.9500;
	183	 1	 0.00	 0.00	 0.0	 0.0	 1	     1.1100	   -31.6943	 220.0	 5	     1.1100	     0.9500;
	184	 1	 0.00	 0.00	 0.0	 0.0	 1	     1.0275	   -31.3178	 400.0	 5	     1.0500	     0.9500;
	185	 1	 0.00	 0.00	 0.0	 0.0	 1	     1.0275	   -31.3109	 400.0	 5	     1.0500	     0.9500;
	186	 1	 0.00	 0.00	 0.0	 0.0	 1	     1.0179	   -33.6362	 400.0	 5	     1.0500	     0.9500;
	187	 1	 0.00	 0.00	 0.0	 0.0	 1	     1.0179	   -33.6438	 400.0	 5	     1.0500	     0.9500;
	188	 1	 0.00	 0.00	 0.0	 0.0	 1	     1.0779	   -31.8508	 220.0	 5	     1.1100	     0.9500;
	189	 1	 0.00	 0.00	 0.0	 0.0	 1	     1.0779	   -31.8542	 220.0	 5	     1.1100	     0.9500;
	190	 1	 0.00	 0.00	 0.0	 0.0	 1	     1.0609	   -26.8360	 220.0	 5	     1.1100	     0.9500;
	191	 1	 0.00	 0.00	 0.0	 0.0	 1	     1.0609	   -26.8337	 220.0	 5	     1.1100	     0.9500;
	192	 1	 0.00	 0.00	 0.0	 0.0	 1	     1.0062	   -26.3724	 400.0	 5	     1.0500	     0.9500;
	193	 1	 0.00	 0.00	 0.0	 0.0	 1	     1.0694	   -24.3325	 220.0	 5	     1.1100	     0.9500;
	194	 1	 0.00	 0.00	 0.0	 0.0	 1	     1.0694	   -24.3297	 220.0	 5	     1.1100	     0.9500;
	195	 1	 0.00	 0.00	 0.0	 0.0	 1	     1.0184	   -32.7631	 400.0	 5	     1.0500	     0.9500;
	196	 1	 0.00	 0.00	 0.0	 0.0	 1	     1.0184	   -32.7607	 400.0	 5	     1.0500	     0.9500;
	197	 1	 0.00	 0.00	 0.0	 0.0	 1	     1.0694	   -26.6067	 220.0	 5	     1.1100	     0.9500;
	198	 1	 0.00	 0.00	 0.0	 0.0	 1	     1.0693	   -26.5997	 220.0	 5	     1.1100	     0.9500;
	199	 1	 0.00	 0.00	 0.0	 0.0	 1	     1.0266	   -32.8535	 400.0	 5	     1.0500	     0.9500;
	200	 1	 0.00	 0.00	 0.0	 0.0	 1	     1.0267	   -32.8406	 400.0	 5	     1.0500	     0.9500;
...
];

%% generator data
%	bus	Pg	Qg	Qmax	Qmin	Vg	mBase	status	Pmax	Pmin	Pc1	Pc2	Qc1min	Qc1max	Qc2min	Qc2max	ramp_agc	ramp_10	ramp_30	ramp_q	apf
mpc.gen = [
	17	 147.0	 89.0	 120.0	 -107.0	 1.09088	 233.2	 1	 213	 70.0	 0.0	 0.0	 0.0	 0.0	 0.0	 0.0	 0.0	 0.0	 0.0	 0.0	 0.0; % NG
	18	 147.0	 17.0	 120.0	 -74.0	 1.09091	 233.2	 1	 147	 70.0	 0.0	 0.0	 0.0	 0.0	 0.0	 0.0	 0.0	 0.0	 0.0	 0.0	 0.0; % NG
	26	 0.0	 0.0	 220.0	 -89.0	 1.09091	 430.5	 0	 177	 145.0	 0.0	 0.0	 0.0	 0.0	 0.0	 0.0	 0.0	 0.0	 0.0	 0.0	 0.0; % NG
	26	 297.0	 31.0	 220.0	 -175.0	 1.09091	 421.9	 1	 350	 145.0	 0.0	 0.0	 0.0	 0.0	 0.0	 0.0	 0.0	 0.0	 0.0	 0.0	 0.0; % COW
	27	 297.0	 45.0	 220.0	 -185.0	 1.09091	 421.9	 1	 370	 145.0	 0.0	 0.0	 0.0	 0.0	 0.0	 0.0	 0.0	 0.0	 0.0	 0.0	 0.0; % NG
	27	 297.0	 45.0	 220.0	 -180.0	 1.09091	 430.5	 1	 360	 145.0	 0.0	 0.0	 0.0	 0.0	 0.0	 0.0	 0.0	 0.0	 0.0	 0.0	 0.0; % NG
	27	 297.0	 45.0	 230.0	 -230.0	 1.09091	 430.5	 1	 460	 145.0	 0.0	 0.0	 0.0	 0.0	 0.0	 0.0	 0.0	 0.0	 0.0	 0.0	 0.0; % NG
	28	 0.0	 0.0	 455.0	 -455.0	 1.0325	 430.5	 0	 910	 145.0	 0.0	 0.0	 0.0	 0.0	 0.0	 0.0	 0.0	 0.0	 0.0	 0.0	 0.0; % NUC
	28	 297.0	 -64.0	 220.0	 -199.0	 1.0325	 430.5	 1	 398	 145.0	 0.0	 0.0	 0.0	 0.0	 0.0	 0.0	 0.0	 0.0	 0.0	 0.0	 0.0; % NG
	28	 297.0	 -64.0	 220.0	 -185.0	 1.0325	 430.5	 1	 370	 145.0	 0.0	 0.0	 0.0	 0.0	 0.0	 0.0	 0.0	 0.0	 0.0	 0.0	 0.0; % NG
	29	 297.0	 4.0	 220.0	 -156.0	 1.0325	 430.5	 1	 311	 145.0	 0.0	 0.0	 0.0	 0.0	 0.0	 0.0	 0.0	 0.0	 0.0	 0.0	 0.0; % COW
	29	 297.0	 4.0	 220.0	 -154.0	 1.0325	 430.5	 1	 307	 145.0	 0.0	 0.0	 0.0	 0.0	 0.0	 0.0	 0.0	 0.0	 0.0	 0.0	 0.0; % NG
	29	 297.0	 4.0	 220.0	 -203.0	 1.0325	 430.5	 1	 406	 145.0	 0.0	 0.0	 0.0	 0.0	 0.0	 0.0	 0.0	 0.0	 0.0	 0.0	 0.0; % NG
	43	 142.0	 -73.0	 165.0	 -165.0	 1.09091	 246.2	 1	 329	 67.5	 0.0	 0.0	 0.0	 0.0	 0.0	 0.0	 0.0	 0.0	 0.0	 0.0	 0.0; % COW
	43	 0.0	 0.0	 120.0	 -40.0	 1.09091	 275.3	 0	 79	 67.5	 0.0	 0.0	 0.0	 0.0	 0.0	 0.0	 0.0	 0.0	 0.0	 0.0	 0.0; % NG
	43	 0.0	 0.0	 120.0	 -26.0	 1.09091	 275.3	 0	 52	 135.0	 0.0	 0.0	 0.0	 0.0	 0.0	 0.0	 0.0	 0.0	 0.0	 0.0	 0.0; % NG
	44	 142.0	 16.0	 212.0	 -212.0	 1.09096	 255.0	 1	 424	 67.5	 0.0	 0.0	 0.0	 0.0	 0.0	 0.0	 0.0	 0.0	 0.0	 0.0	 0.0; % COW
	44	 142.0	 16.0	 120.0	 -110.0	 1.09096	 255.0	 1	 220	 67.5	 0.0	 0.0	 0.0	 0.0	 0.0	 0.0	 0.0	 0.0	 0.0	 0.0	 0.0; % NG
	44	 0.0	 0.0	 120.0	 -67.0	 1.09096	 255.0	 0	 134	 67.5	 0.0	 0.0	 0.0	 0.0	 0.0	 0.0	 0.0	 0.0	 0.0	 0.0	 0.0; % NG
	45	 0.0	 0.0	 350.0	 -100.0	 1.0325	 610.3	 0	 199	 175.0	 0.0	 0.0	 0.0	 0.0	 0.0	 0.0	 0.0	 0.0	 0.0	 0.0	 0.0; % COW
	45	 357.0	 98.0	 350.0	 -196.0	 1.0325	 610.3	 1	 392	 175.0	 0.0	 0.0	 0.0	 0.0	 0.0	 0.0	 0.0	 0.0	 0.0	 0.0	 0.0; % NG
	55	 137.0	 -78.0	 120.0	 -93.6	 1.09121	 255.0	 1	 165	 65.0	 0.0	 0.0	 0.0	 0.0	 0.0	 0.0	 0.0	 0.0	 0.0	 0.0	 0.0; % NG
	56	 137.0	 -44.0	 146.0	 -146.0	 1.09115	 255.0	 1	 291	 65.0	 0.0	 0.0	 0.0	 0.0	 0.0	 0.0	 0.0	 0.0	 0.0	 0.0	 0.0; % NG
	56	 0.0	 0.0	 120.0	 -22.0	 1.09115	 255.0	 0	 43	 130.0	 0.0	 0.0	 0.0	 0.0	 0.0	 0.0	 0.0	 0.0	 0.0	 0.0	 0.0; % NG
	57	 137.0	 -45.0	 120.0	 -69.0	 1.03336	 255.0	 1	 137	 65.0	 0.0	 0.0	 0.0	 0.0	 0.0	 0.0	 0.0	 0.0	 0.0	 0.0	 0.0; % NG
	58	 0.0	 0.0	 276.0	 -276.0	 1.03337	 255.0	 0	 552	 65.0	 0.0	 0.0	 0.0	 0.0	 0.0	 0.0	 0.0	 0.0	 0.0	 0.0	 0.0; % COW
	58	 137.0	 -121.0	 148.0	 -148.0	 1.03337	 255.0	 1	 295	 65.0	 0.0	 0.0	 0.0	 0.0	 0.0	 0.0	 0.0	 0.0	 0.0	 0.0	 0.0; % COW
	58	 0.0	 0.0	 124.0	 -124.0	 1.03337	 255.0	 0	 248	 65.0	 0.0	 0.0	 0.0	 0.0	 0.0	 0.0	 0.0	 0.0	 0.0	 0.0	 0.0; % NG
	59	 70.0	 -81.0	 97.2	 -97.2	 1.08415	 69.3	 1	 130	 31.5	 0.0	 0.0	 0.0	 0.0	 0.0	 0.0	 0.0	 0.0	 0.0	 0.0	 0.0; % NG
	78	 148.0	 19.0	 121.0	 -121.0	 1.09091	 248.3	 1	 241	 70.0	 0.0	 0.0	 0.0	 0.0	 0.0	 0.0	 0.0	 0.0	 0.0	 0.0	 0.0; % NG
	78	 148.0	 19.0	 116.0	 -116.0	 1.09091	 248.3	 1	 232	 70.0	 0.0	 0.0	 0.0	 0.0	 0.0	 0.0	 0.0	 0.0	 0.0	 0.0	 0.0; % NG
	79	 0.0	 0.0	 105.0	 -38.0	 1.09034	 243.8	 0	 76	 70.0	 0.0	 0.0	 0.0	 0.0	 0.0	 0.0	 0.0	 0.0	 0.0	 0.0	 0.0; % NG
	79	 0.0	 0.0	 105.0	 -84.0	 1.09034	 248.3	 0	 168	 70.0	 0.0	 0.0	 0.0	 0.0	 0.0	 0.0	 0.0	 0.0	 0.0	 0.0	 0.0; % NG
	79	 148.0	 -13.0	 105.0	 -92.0	 1.09034	 248.3	 1	 184	 70.0	 0.0	 0.0	 0.0	 0.0	 0.0	 0.0	 0.0	 0.0	 0.0	 0.0	 0.0; % NG
	82	 227.0	 -100.0	 192.0	 -127.0	 1.02993	 425.8	 1	 253	 110.0	 0.0	 0.0	 0.0	 0.0	 0.0	 0.0	 0.0	 0.0	 0.0	 0.0	 0.0; % NG
	82	 227.0	 -100.0	 174.0	 -141.0	 1.02993	 408.9	 1	 281	 110.0	 0.0	 0.0	 0.0	 0.0	 0.0	 0.0	 0.0	 0.0	 0.0	 0.0	 0.0; % NG
	104	 127.0	 393.0	 471.6	 -471.6	 1.09091	 251.8	 1	 357	 60.0	 0.0	 0.0	 0.0	 0.0	 0.0	 0.0	 0.0	 0.0	 0.0	 0.0	 0.0; % NG
	105	 0.0	 0.0	 113.0	 -48.0	 1.09091	 251.8	 0	 76	 67.0	 0.0	 0.0	 0.0	 0.0	 0.0	 0.0	 0.0	 0.0	 0.0	 0.0	 0.0; % NG
	106	 86.0	 -65.0	 90.0	 -78.0	 1.09091	 150.0	 1	 128	 39.5	 0.0	 0.0	 0.0	 0.0	 0.0	 0.0	 0.0	 0.0	 0.0	 0.0	 0.0; % NG
	107	 86.0	 42.0	 90.0	 -56.0	 1.09091	 150.0	 1	 111	 39.5	 0.0	 0.0	 0.0	 0.0	 0.0	 0.0	 0.0	 0.0	 0.0	 0.0	 0.0; % PEL
	116	 0.0	 0.0	 163.0	 -163.0	 1.09042	 150.0	 0	 325	 45.0	 0.0	 0.0	 0.0	 0.0	 0.0	 0.0	 0.0	 0.0	 0.0	 0.0	 0.0; % COW
	117	 78.0	 -36.0	 182.0	 -182.0	 1.09046	 150.0	 1	 363	 35.0	 0.0	 0.0	 0.0	 0.0	 0.0	 0.0	 0.0	 0.0	 0.0	 0.0	 0.0; % COW
	118	 88.0	 -52.0	 118.0	 -118.0	 1.089	 129.3	 1	 235	 40.0	 0.0	 0.0	 0.0	 0.0	 0.0	 0.0	 0.0	 0.0	 0.0	 0.0	 0.0; % NG
	125	 167.0	 -243.0	 291.6	 -291.6	 1.09091	 242.9	 1	 304	 80.0	 0.0	 0.0	 0.0	 0.0	 0.0	 0.0	 0.0	 0.0	 0.0	 0.0	 0.0; % COW
	126	 147.0	 21.0	 88.0	 -88.0	 1.09082	 240.2	 1	 176	 70.0	 0.0	 0.0	 0.0	 0.0	 0.0	 0.0	 0.0	 0.0	 0.0	 0.0	 0.0; % COW
	126	 0.0	 0.0	 80.0	 -7.0	 1.09082	 229.4	 0	 13	 160.0	 0.0	 0.0	 0.0	 0.0	 0.0	 0.0	 0.0	 0.0	 0.0	 0.0	 0.0; % NG
	127	 147.0	 -20.0	 127.0	 -127.0	 1.02869	 238.5	 1	 254	 70.0	 0.0	 0.0	 0.0	 0.0	 0.0	 0.0	 0.0	 0.0	 0.0	 0.0	 0.0; % NG
	127	 167.0	 -20.0	 102.0	 -102.0	 1.02869	 241.7	 1	 204	 80.0	 0.0	 0.0	 0.0	 0.0	 0.0	 0.0	 0.0	 0.0	 0.0	 0.0	 0.0; % NG
	132	 0.0	 0.0	 0.0	 0.0	 1.09091	 0.0	 0	 0	 0.0	 0.0	 0.0	 0.0	 0.0	 0.0	 0.0	 0.0	 0.0	 0.0	 0.0	 0.0; % SYNC
	132	 0.0	 0.0	 0.0	 0.0	 1.09091	 0.0	 0	 0	 0.0	 0.0	 0.0	 0.0	 0.0	 0.0	 0.0	 0.0	 0.0	 0.0	 0.0	 0.0; % SYNC
	133	 0.0	 0.0	 0.0	 0.0	 1.09091	 0.0	 0	 0	 0.0	 0.0	 0.0	 0.0	 0.0	 0.0	 0.0	 0.0	 0.0	 0.0	 0.0	 0.0; % SYNC
	133	 0.0	 0.0	 0.0	 0.0	 1.09091	 0.0	 0	 0	 0.0	 0.0	 0.0	 0.0	 0.0	 0.0	 0.0	 0.0	 0.0	 0.0	 0.0	 0.0; % SYNC
	134	 0.0	 0.0	 90.0	 -1.0	 1.08882	 150.0	 0	 1	 102.0	 0.0	 0.0	 0.0	 0.0	 0.0	 0.0	 0.0	 0.0	 0.0	 0.0	 0.0; % NG
	134	 107.0	 -49.0	 127.0	 -127.0	 1.08882	 150.0	 1	 253	 50.0	 0.0	 0.0	 0.0	 0.0	 0.0	 0.0	 0.0	 0.0	 0.0	 0.0	 0.0; % NG
	135	 0.0	 0.0	 90.0	 -53.0	 1.08867	 150.0	 0	 106	 51.0	 0.0	 0.0	 0.0	 0.0	 0.0	 0.0	 0.0	 0.0	 0.0	 0.0	 0.0; % NG
	146	 38.0	 25.0	 80.0	 -80.0	 1.09012	 51.4	 1	 160	 15.0	 0.0	 0.0	 0.0	 0.0	 0.0	 0.0	 0.0	 0.0	 0.0	 0.0	 0.0; % NG
	146	 38.0	 25.0	 57.0	 -57.0	 1.09012	 51.4	 1	 114	 15.0	 0.0	 0.0	 0.0	 0.0	 0.0	 0.0	 0.0	 0.0	 0.0	 0.0	 0.0; % NG
	147	 0.0	 0.0	 497.0	 -497.0	 1.09011	 150.0	 0	 994	 45.0	 0.0	 0.0	 0.0	 0.0	 0.0	 0.0	 0.0	 0.0	 0.0	 0.0	 0.0; % COW
	148	 98.0	 -73.0	 120.0	 -87.6	 1.09091	 252.4	 1	 144	 45.0	 0.0	 0.0	 0.0	 0.0	 0.0	 0.0	 0.0	 0.0	 0.0	 0.0	 0.0; % NG
	148	 0.0	 0.0	 120.0	 -38.0	 1.09091	 237.5	 0	 75	 67.5	 0.0	 0.0	 0.0	 0.0	 0.0	 0.0	 0.0	 0.0	 0.0	 0.0	 0.0; % NG
	148	 0.0	 0.0	 120.0	 -15.0	 1.09091	 237.5	 0	 30	 135.0	 0.0	 0.0	 0.0	 0.0	 0.0	 0.0	 0.0	 0.0	 0.0	 0.0	 0.0; % NG
	148	 98.0	 -73.0	 120.0	 -87.6	 1.09091	 252.4	 1	 155	 45.0	 0.0	 0.0	 0.0	 0.0	 0.0	 0.0	 0.0	 0.0	 0.0	 0.0	 0.0; % NG
	150	 99.0	 128.0	 153.6	 -153.6	 1.03246	 252.4	 1	 109	 45.0	 0.0	 0.0	 0.0	 0.0	 0.0	 0.0	 0.0	 0.0	 0.0	 0.0	 0.0; % NG
	151	 99.0	 247.0	 296.4	 -296.4	 1.0325	 252.4	 1	 174	 45.0	 0.0	 0.0	 0.0	 0.0	 0.0	 0.0	 0.0	 0.0	 0.0	 0.0	 0.0; % COW
	151	 0.0	 0.0	 120.0	 -36.0	 1.0325	 252.4	 0	 72	 45.0	 0.0	 0.0	 0.0	 0.0	 0.0	 0.0	 0.0	 0.0	 0.0	 0.0	 0.0; % NG
	155	 101.0	 -12.0	 120.0	 -65.0	 1.09091	 263.9	 1	 130	 47.0	 0.0	 0.0	 0.0	 0.0	 0.0	 0.0	 0.0	 0.0	 0.0	 0.0	 0.0; % COW
	155	 101.0	 -12.0	 120.0	 -62.0	 1.09091	 263.9	 1	 123	 47.0	 0.0	 0.0	 0.0	 0.0	 0.0	 0.0	 0.0	 0.0	 0.0	 0.0	 0.0; % NG
	155	 0.0	 0.0	 120.0	 -14.0	 1.09091	 237.5	 0	 28	 130.0	 0.0	 0.0	 0.0	 0.0	 0.0	 0.0	 0.0	 0.0	 0.0	 0.0	 0.0; % NG
	155	 111.0	 -12.0	 120.0	 -114.0	 1.09091	 287.3	 1	 228	 52.0	 0.0	 0.0	 0.0	 0.0	 0.0	 0.0	 0.0	 0.0	 0.0	 0.0	 0.0; % NG
	156	 0.0	 0.0	 120.0	 -63.0	 1.09091	 237.5	 0	 126	 65.0	 0.0	 0.0	 0.0	 0.0	 0.0	 0.0	 0.0	 0.0	 0.0	 0.0	 0.0; % NG
	156	 137.0	 6.0	 120.0	 -103.0	 1.09091	 237.5	 1	 205	 65.0	 0.0	 0.0	 0.0	 0.0	 0.0	 0.0	 0.0	 0.0	 0.0	 0.0	 0.0; % NG
	156	 127.0	 6.0	 123.0	 -123.0	 1.09091	 238.4	 1	 246	 60.0	 0.0	 0.0	 0.0	 0.0	 0.0	 0.0	 0.0	 0.0	 0.0	 0.0	 0.0; % NG
	156	 127.0	 6.0	 120.0	 -98.0	 1.09091	 238.4	 1	 195	 60.0	 0.0	 0.0	 0.0	 0.0	 0.0	 0.0	 0.0	 0.0	 0.0	 0.0	 0.0; % NG
	159	 127.0	 -46.0	 120.0	 -90.0	 1.00535	 238.4	 1	 180	 60.0	 0.0	 0.0	 0.0	 0.0	 0.0	 0.0	 0.0	 0.0	 0.0	 0.0	 0.0; % NG
	165	 158.0	 -3.0	 120.0	 -82.0	 1.09084	 233.2	 1	 164	 75.0	 0.0	 0.0	 0.0	 0.0	 0.0	 0.0	 0.0	 0.0	 0.0	 0.0	 0.0; % NG
	165	 0.0	 0.0	 146.0	 -146.0	 1.09084	 233.2	 0	 291	 75.0	 0.0	 0.0	 0.0	 0.0	 0.0	 0.0	 0.0	 0.0	 0.0	 0.0	 0.0; % NG
	166	 158.0	 -68.0	 120.0	 -88.0	 1.09091	 233.2	 1	 176	 75.0	 0.0	 0.0	 0.0	 0.0	 0.0	 0.0	 0.0	 0.0	 0.0	 0.0	 0.0; % NG
	165	 0.0	 0.0	 120.0	 -47.0	 1.09084	 233.2	 0	 93	 75.0	 0.0	 0.0	 0.0	 0.0	 0.0	 0.0	 0.0	 0.0	 0.0	 0.0	 0.0; % COW
	205	 0.0	 38.0	 80.0	 -45.6	 1.0325	 196.1	 1	 0	 0.0	 0.0	 0.0	 0.0	 0.0	 0.0	 0.0	 0.0	 0.0	 0.0	 0.0	 0.0; % SYNC
	205	 0.0	 38.0	 80.0	 -45.6	 1.0325	 196.1	 1	 0	 0.0	 0.0	 0.0	 0.0	 0.0	 0.0	 0.0	 0.0	 0.0	 0.0	 0.0	 0.0; % SYNC
	205	 0.0	 38.0	 80.0	 -45.6	 1.0325	 196.1	 1	 0	 0.0	 0.0	 0.0	 0.0	 0.0	 0.0	 0.0	 0.0	 0.0	 0.0	 0.0	 0.0; % SYNC
	206	 0.0	 3.0	 80.0	 -30.0	 1.0325	 196.1	 1	 0	 0.0	 0.0	 0.0	 0.0	 0.0	 0.0	 0.0	 0.0	 0.0	 0.0	 0.0	 0.0; % SYNC
	215	 43.0	 -9.0	 25.0	 -25.0	 1.08646	 58.5	 1	 50	 18.5395	 0.0	 0.0	 0.0	 0.0	 0.0	 0.0	 0.0	 0.0	 0.0	 0.0	 0.0; % NG
	215	 40.0	 -9.0	 33.0	 -33.0	 1.08646	 53.9	 1	 65	 16.854	 0.0	 0.0	 0.0	 0.0	 0.0	 0.0	 0.0	 0.0	 0.0	 0.0	 0.0; % PEL
	215	 40.0	 -9.0	 37.0	 -37.0	 1.08646	 53.9	 1	 74	 16.854	 0.0	 0.0	 0.0	 0.0	 0.0	 0.0	 0.0	 0.0	 0.0	 0.0	 0.0; % NG
	215	 21.0	 -9.0	 32.0	 -32.0	 1.08646	 30.5	 1	 64	 7.753	 0.0	 0.0	 0.0	 0.0	 0.0	 0.0	 0.0	 0.0	 0.0	 0.0	 0.0; % NG
	229	 9.0	 2.0	 16.0	 -16.0	 1.06367	 7.3	 1	 31	 2.75	 0.0	 0.0	 0.0	 0.0	 0.0	 0.0	 0.0	 0.0	 0.0	 0.0	 0.0; % PEL
	230	 9.0	 2.0	 8.0	 -8.0	 1.06392	 10.0	 1	 16	 2.75	 0.0	 0.0	 0.0	 0.0	 0.0	 0.0	 0.0	 0.0	 0.0	 0.0	 0.0; % COW
	239	 12.0	 27.0	 32.4	 -32.4	 1.03337	 15.4	 1	 57	 1.5	 0.0	 0.0	 0.0	 0.0	 0.0	 0.0	 0.0	 0.0	 0.0	 0.0	 0.0; % PEL
	246	 297.0	 211.0	 225.0	 -253.2	 1.03502	 430.5	 1	 450	 145.0	 0.0	 0.0	 0.0	 0.0	 0.0	 0.0	 0.0	 0.0	 0.0	 0.0	 0.0; % COW
	291	 9.0	 -8.0	 22.0	 -22.0	 1.06439	 3.2	 1	 44	 1.0	 0.0	 0.0	 0.0	 0.0	 0.0	 0.0	 0.0	 0.0	 0.0	 0.0	 0.0; % PEL
	294	 11.0	 -2.0	 12.0	 -12.0	 1.05278	 4.8	 1	 24	 1.0	 0.0	 0.0	 0.0	 0.0	 0.0	 0.0	 0.0	 0.0	 0.0	 0.0	 0.0; % PEL
	306	 17.0	 12.0	 18.0	 -18.0	 1.05332	 24.0	 1	 35	 4.5835	 0.0	 0.0	 0.0	 0.0	 0.0	 0.0	 0.0	 0.0	 0.0	 0.0	 0.0; % NG
	306	 24.0	 12.0	 18.0	 -18.0	 1.05332	 27.9	 1	 35	 8.148	 0.0	 0.0	 0.0	 0.0	 0.0	 0.0	 0.0	 0.0	 0.0	 0.0	 0.0; % PEL
	306	 19.0	 12.0	 33.0	 -33.0	 1.05332	 31.0	 1	 66	 5.602	 0.0	 0.0	 0.0	 0.0	 0.0	 0.0	 0.0	 0.0	 0.0	 0.0	 0.0; % PEL
	306	 17.0	 12.0	 26.0	 -26.0	 1.05332	 26.9	 1	 51	 4.5835	 0.0	 0.0	 0.0	 0.0	 0.0	 0.0	 0.0	 0.0	 0.0	 0.0	 0.0; % NG
	306	 17.0	 12.0	 35.0	 -35.0	 1.05332	 28.1	 1	 70	 4.5835	 0.0	 0.0	 0.0	 0.0	 0.0	 0.0	 0.0	 0.0	 0.0	 0.0	 0.0; % NG
	307	 44.0	 14.0	 36.0	 -36.0	 1.05854	 57.0	 1	 71	 18.25	 0.0	 0.0	 0.0	 0.0	 0.0	 0.0	 0.0	 0.0	 0.0	 0.0	 0.0; % NG
	307	 44.0	 14.0	 27.0	 -27.0	 1.05854	 57.0	 1	 54	 18.25	 0.0	 0.0	 0.0	 0.0	 0.0	 0.0	 0.0	 0.0	 0.0	 0.0	 0.0; % PEL
	308	 39.0	 6.0	 31.0	 -31.0	 1.067	 36.7	 1	 62	 16.0	 0.0	 0.0	 0.0	 0.0	 0.0	 0.0	 0.0	 0.0	 0.0	 0.0	 0.0; % PEL
	308	 47.0	 6.0	 73.0	 -73.0	 1.067	 57.5	 1	 146	 20.0	 0.0	 0.0	 0.0	 0.0	 0.0	 0.0	 0.0	 0.0	 0.0	 0.0	 0.0; % NG
	310	 42.0	 13.0	 52.0	 -52.0	 1.07303	 53.9	 1	 103	 17.5	 0.0	 0.0	 0.0	 0.0	 0.0	 0.0	 0.0	 0.0	 0.0	 0.0	 0.0; % NG
	310	 82.0	 13.0	 61.0	 -61.0	 1.07303	 103.2	 1	 122	 37.5	 0.0	 0.0	 0.0	 0.0	 0.0	 0.0	 0.0	 0.0	 0.0	 0.0	 0.0; % PEL
	311	 52.0	 12.0	 40.0	 -28.0	 1.06272	 64.0	 1	 55	 22.5	 0.0	 0.0	 0.0	 0.0	 0.0	 0.0	 0.0	 0.0	 0.0	 0.0	 0.0; % NG
	319	 9.0	 11.0	 13.2	 -13.2	 1.07001	 4.1	 1	 15	 1.0	 0.0	 0.0	 0.0	 0.0	 0.0	 0.0	 0.0	 0.0	 0.0	 0.0	 0.0; % PEL
	345	 9.0	 -1.0	 20.0	 -20.0	 1.04796	 1.9	 1	 39	 0.5	 0.0	 0.0	 0.0	 0.0	 0.0	 0.0	 0.0	 0.0	 0.0	 0.0	 0.0; % PEL
	362	 48.0	 11.0	 74.0	 -74.0	 1.08888	 47.8	 1	 148	 20.0	 0.0	 0.0	 0.0	 0.0	 0.0	 0.0	 0.0	 0.0	 0.0	 0.0	 0.0; % COW
	363	 48.0	 16.0	 26.0	 -26.0	 1.06039	 47.8	 1	 51	 20.0	 0.0	 0.0	 0.0	 0.0	 0.0	 0.0	 0.0	 0.0	 0.0	 0.0	 0.0; % NG
	364	 0.0	 0.0	 12.0	 0.0	 1.1049	 47.8	 0	 0	 0.0	 0.0	 0.0	 0.0	 0.0	 0.0	 0.0	 0.0	 0.0	 0.0	 0.0	 0.0; % SYNC
	364	 54.0	 9.0	 48.0	 -48.0	 1.1049	 71.0	 1	 96	 23.0	 0.0	 0.0	 0.0	 0.0	 0.0	 0.0	 0.0	 0.0	 0.0	 0.0	 0.0; % PEL
	365	 48.0	 11.0	 53.0	 -53.0	 1.06981	 47.8	 1	 106	 20.0	 0.0	 0.0	 0.0	 0.0	 0.0	 0.0	 0.0	 0.0	 0.0	 0.0	 0.0; % COW
	365	 48.0	 11.0	 26.0	 -26.0	 1.06981	 47.8	 1	 51	 20.0	 0.0	 0.0	 0.0	 0.0	 0.0	 0.0	 0.0	 0.0	 0.0	 0.0	 0.0; % PEL
	368	 9.0	 7.0	 20.0	 -20.0	 1.07107	 1.9	 1	 39	 0.5	 0.0	 0.0	 0.0	 0.0	 0.0	 0.0	 0.0	 0.0	 0.0	 0.0	 0.0; % PEL
	382	 22.0	 9.0	 17.0	 -17.0	 1.08182	 55.9	 1	 33	 7.5	 0.0	 0.0	 0.0	 0.0	 0.0	 0.0	 0.0	 0.0	 0.0	 0.0	 0.0; % NG
	382	 127.0	 9.0	 120.0	 -81.0	 1.08182	 255.9	 1	 162	 60.0	 0.0	 0.0	 0.0	 0.0	 0.0	 0.0	 0.0	 0.0	 0.0	 0.0	 0.0; % NG
	383	 23.0	 -6.0	 35.0	 -35.0	 1.10054	 55.9	 1	 70	 7.5	 0.0	 0.0	 0.0	 0.0	 0.0	 0.0	 0.0	 0.0	 0.0	 0.0	 0.0; % PEL
	386	 10.0	 12.0	 14.4	 -14.4	 1.05805	 4.8	 1	 28	 1.25	 0.0	 0.0	 0.0	 0.0	 0.0	 0.0	 0.0	 0.0	 0.0	 0.0	 0.0; % NG
	395	 9.0	 -1.0	 8.0	 -8.0	 1.06558	 1.9	 1	 16	 0.5	 0.0	 0.0	 0.0	 0.0	 0.0	 0.0	 0.0	 0.0	 0.0	 0.0	 0.0; % PEL
	421	 14.0	 7.0	 31.0	 -31.0	 1.04857	 7.7	 1	 62	 2.0	 0.0	 0.0	 0.0	 0.0	 0.0	 0.0	 0.0	 0.0	 0.0	 0.0	 0.0; % NG
	426	 10.0	 3.0	 12.0	 -12.0	 1.07431	 4.5	 1	 23	 1.5	 0.0	 0.0	 0.0	 0.0	 0.0	 0.0	 0.0	 0.0	 0.0	 0.0	 0.0; % PEL
	431	 13.0	 -7.0	 17.0	 -17.0	 1.08943	 13.6	 1	 34	 2.5	 0.0	 0.0	 0.0	 0.0	 0.0	 0.0	 0.0	 0.0	 0.0	 0.0	 0.0; % PEL
	440	 10.0	 16.0	 19.2	 -19.2	 1.0288	 3.6	 1	 17	 1.0	 0.0	 0.0	 0.0	 0.0	 0.0	 0.0	 0.0	 0.0	 0.0	 0.0	 0.0; % PEL
	447	 11.0	 1.0	 20.0	 -18.0	 1.0498	 21.3	 1	 36	 1.75	 0.0	 0.0	 0.0	 0.0	 0.0	 0.0	 0.0	 0.0	 0.0	 0.0	 0.0; % NG
	447	 11.0	 1.0	 20.0	 -12.0	 1.0498	 21.3	 1	 23	 1.75	 0.0	 0.0	 0.0	 0.0	 0.0	 0.0	 0.0	 0.0	 0.0	 0.0	 0.0; % PEL
	463	 0.0	 9.0	 10.8	 -10.8	 1.0465	 4.0	 1	 0	 0.0	 0.0	 0.0	 0.0	 0.0	 0.0	 0.0	 0.0	 0.0	 0.0	 0.0	 0.0; % SYNC
	482	 10.0	 22.0	 26.4	 -26.4	 1.02656	 1.7	 1	 10	 0.7	 0.0	 0.0	 0.0	 0.0	 0.0	 0.0	 0.0	 0.0	 0.0	 0.0	 0.0; % PEL
	490	 10.0	 -5.0	 15.0	 -15.0	 1.05535	 5.3	 1	 29	 1.5	 0.0	 0.0	 0.0	 0.0	 0.0	 0.0	 0.0	 0.0	 0.0	 0.0	 0.0; % PEL
	522	 0.0	 3.0	 3.6	 -3.6	 1.06929	 1.9	 1	 0	 0.0	 0.0	 0.0	 0.0	 0.0	 0.0	 0.0	 0.0	 0.0	 0.0	 0.0	 0.0; % SYNC
	533	 9.0	 6.0	 19.0	 -19.0	 1.07198	 1.9	 1	 38	 0.25	 0.0	 0.0	 0.0	 0.0	 0.0	 0.0	 0.0	 0.0	 0.0	 0.0	 0.0; % PEL
	534	 42.0	 4.0	 43.0	 -43.0	 1.06429	 53.9	 1	 85	 17.945	 0.0	 0.0	 0.0	 0.0	 0.0	 0.0	 0.0	 0.0	 0.0	 0.0	 0.0; % NG
	534	 28.0	 4.0	 14.0	 -14.0	 1.06429	 34.9	 1	 28	 11.043	 0.0	 0.0	 0.0	 0.0	 0.0	 0.0	 0.0	 0.0	 0.0	 0.0	 0.0; % NG
	534	 28.0	 4.0	 40.0	 -40.0	 1.06429	 34.9	 1	 80	 11.043	 0.0	 0.0	 0.0	 0.0	 0.0	 0.0	 0.0	 0.0	 0.0	 0.0	 0.0; % PEL
	534	 79.0	 4.0	 50.0	 -50.0	 1.06429	 105.9	 1	 99	 36.2345	 0.0	 0.0	 0.0	 0.0	 0.0	 0.0	 0.0	 0.0	 0.0	 0.0	 0.0; % NG
	534	 79.0	 4.0	 56.0	 -56.0	 1.06429	 105.9	 1	 112	 36.2345	 0.0	 0.0	 0.0	 0.0	 0.0	 0.0	 0.0	 0.0	 0.0	 0.0	 0.0; % PEL
	535	 30.0	 8.0	 52.0	 -52.0	 1.05783	 36.5	 1	 104	 12.2865	 0.0	 0.0	 0.0	 0.0	 0.0	 0.0	 0.0	 0.0	 0.0	 0.0	 0.0; % NG
	535	 29.0	 8.0	 59.0	 -59.0	 1.05783	 35.6	 1	 117	 11.9025	 0.0	 0.0	 0.0	 0.0	 0.0	 0.0	 0.0	 0.0	 0.0	 0.0	 0.0; % PEL
	535	 102.0	 8.0	 143.0	 -143.0	 1.05783	 126.2	 1	 286	 47.995	 0.0	 0.0	 0.0	 0.0	 0.0	 0.0	 0.0	 0.0	 0.0	 0.0	 0.0; % COW
	535	 86.0	 8.0	 45.0	 -45.0	 1.05783	 106.4	 1	 90	 40.3155	 0.0	 0.0	 0.0	 0.0	 0.0	 0.0	 0.0	 0.0	 0.0	 0.0	 0.0; % NG
	549	 10.0	 6.0	 7.2	 -7.2	 1.0394	 1.7	 1	 12	 0.5	 0.0	 0.0	 0.0	 0.0	 0.0	 0.0	 0.0	 0.0	 0.0	 0.0	 0.0; % PEL
	557	 33.0	 5.0	 32.0	 -32.0	 1.04037	 34.4	 1	 64	 12.862	 0.0	 0.0	 0.0	 0.0	 0.0	 0.0	 0.0	 0.0	 0.0	 0.0	 0.0; % NG
	557	 29.0	 5.0	 37.0	 -37.0	 1.04037	 28.5	 1	 73	 10.592	 0.0	 0.0	 0.0	 0.0	 0.0	 0.0	 0.0	 0.0	 0.0	 0.0	 0.0; % NG
	557	 27.0	 5.0	 53.0	 -53.0	 1.04037	 26.5	 1	 105	 9.8355	 0.0	 0.0	 0.0	 0.0	 0.0	 0.0	 0.0	 0.0	 0.0	 0.0	 0.0; % NG
	557	 30.0	 5.0	 53.0	 -53.0	 1.04037	 30.4	 1	 105	 11.3485	 0.0	 0.0	 0.0	 0.0	 0.0	 0.0	 0.0	 0.0	 0.0	 0.0	 0.0; % PEL
	557	 33.0	 5.0	 21.0	 -21.0	 1.04037	 34.4	 1	 41	 12.862	 0.0	 0.0	 0.0	 0.0	 0.0	 0.0	 0.0	 0.0	 0.0	 0.0	 0.0; % NG
	558	 39.0	 15.0	 64.0	 -64.0	 1.03685	 34.4	 1	 127	 15.516	 0.0	 0.0	 0.0	 0.0	 0.0	 0.0	 0.0	 0.0	 0.0	 0.0	 0.0; % NG
	558	 39.0	 15.0	 48.0	 -48.0	 1.03685	 34.4	 1	 96	 15.516	 0.0	 0.0	 0.0	 0.0	 0.0	 0.0	 0.0	 0.0	 0.0	 0.0	 0.0; % NG
	558	 30.0	 15.0	 18.0	 -18.0	 1.03685	 26.5	 1	 36	 11.4085	 0.0	 0.0	 0.0	 0.0	 0.0	 0.0	 0.0	 0.0	 0.0	 0.0	 0.0; % NG
	558	 38.0	 15.0	 43.0	 -43.0	 1.03685	 34.4	 1	 85	 15.0595	 0.0	 0.0	 0.0	 0.0	 0.0	 0.0	 0.0	 0.0	 0.0	 0.0	 0.0; % PEL
	581	 12.0	 7.0	 22.0	 -22.0	 1.0494	 5.3	 1	 43	 1.5	 0.0	 0.0	 0.0	 0.0	 0.0	 0.0	 0.0	 0.0	 0.0	 0.0	 0.0; % PEL
	594	 10.0	 3.0	 20.0	 -20.0	 1.06495	 4.4	 1	 39	 1.035	 0.0	 0.0	 0.0	 0.0	 0.0	 0.0	 0.0	 0.0	 0.0	 0.0	 0.0; % PEL
	601	 11.0	 1.0	 6.0	 -6.0	 1.06191	 4.4	 1	 12	 2.025	 0.0	 0.0	 0.0	 0.0	 0.0	 0.0	 0.0	 0.0	 0.0	 0.0	 0.0; % PEL
	622	 117.0	 -8.0	 79.0	 -79.0	 1.0778	 114.0	 1	 158	 55.0	 0.0	 0.0	 0.0	 0.0	 0.0	 0.0	 0.0	 0.0	 0.0	 0.0	 0.0; % NG
	622	 0.0	 0.0	 30.0	 0.0	 1.0778	 65.3	 0	 0	 0.0	 0.0	 0.0	 0.0	 0.0	 0.0	 0.0	 0.0	 0.0	 0.0	 0.0	 0.0; % SYNC
	626	 9.0	 -15.0	 18.0	 -18.0	 1.07287	 2.4	 1	 9	 1.125	 0.0	 0.0	 0.0	 0.0	 0.0	 0.0	 0.0	 0.0	 0.0	 0.0	 0.0; % PEL
	630	 12.0	 3.0	 8.0	 -8.0	 1.06945	 5.2	 1	 15	 2.25	 0.0	 0.0	 0.0	 0.0	 0.0	 0.0	 0.0	 0.0	 0.0	 0.0	 0.0; % NG
	631	 13.0	 1.0	 12.0	 -12.0	 1.06942	 6.0	 1	 23	 2.7	 0.0	 0.0	 0.0	 0.0	 0.0	 0.0	 0.0	 0.0	 0.0	 0.0	 0.0; % NG
	655	 9.0	 5.0	 17.0	 -17.0	 1.03169	 0.9	 1	 33	 0.405	 0.0	 0.0	 0.0	 0.0	 0.0	 0.0	 0.0	 0.0	 0.0	 0.0	 0.0; % NG
	660	 142.0	 -8.0	 120.0	 -77.0	 1.08206	 255.0	 1	 154	 67.5	 0.0	 0.0	 0.0	 0.0	 0.0	 0.0	 0.0	 0.0	 0.0	 0.0	 0.0; % NG
	661	 142.0	 38.0	 196.0	 -196.0	 1.08182	 255.0	 1	 392	 67.5	 0.0	 0.0	 0.0	 0.0	 0.0	 0.0	 0.0	 0.0	 0.0	 0.0	 0.0; % COW
	667	 10.0	 15.0	 18.0	 -18.0	 1.03727	 2.0	 1	 27	 0.945	 0.0	 0.0	 0.0	 0.0	 0.0	 0.0	 0.0	 0.0	 0.0	 0.0	 0.0; % PEL
	671	 15.0	 12.0	 15.0	 -15.0	 1.06812	 8.6	 1	 30	 3.825	 0.0	 0.0	 0.0	 0.0	 0.0	 0.0	 0.0	 0.0	 0.0	 0.0	 0.0; % COW
	673	 11.0	 9.0	 21.0	 -21.0	 1.06495	 4.4	 1	 42	 1.35	 0.0	 0.0	 0.0	 0.0	 0.0	 0.0	 0.0	 0.0	 0.0	 0.0	 0.0; % PEL
	681	 196.0	 -9.0	 273.0	 -273.0	 1.08024	 192.4	 1	 546	 95.0	 0.0	 0.0	 0.0	 0.0	 0.0	 0.0	 0.0	 0.0	 0.0	 0.0	 0.0; % NG
	681	 31.0	 -9.0	 30.0	 -25.0	 1.08024	 77.5	 1	 49	 12.499	 0.0	 0.0	 0.0	 0.0	 0.0	 0.0	 0.0	 0.0	 0.0	 0.0	 0.0; % NG
	687	 16.0	 -13.0	 21.0	 -21.0	 1.07512	 10.1	 1	 41	 4.5	 0.0	 0.0	 0.0	 0.0	 0.0	 0.0	 0.0	 0.0	 0.0	 0.0	 0.0; % NG
	699	 14.0	 4.0	 18.0	 -18.0	 1.0746	 6.0	 1	 36	 2.7	 0.0	 0.0	 0.0	 0.0	 0.0	 0.0	 0.0	 0.0	 0.0	 0.0	 0.0; % PEL
	702	 8.0	 1.0	 9.0	 -9.0	 1.0721	 1.3	 1	 18	 0.45	 0.0	 0.0	 0.0	 0.0	 0.0	 0.0	 0.0	 0.0	 0.0	 0.0	 0.0; % NG
	712	 16.0	 5.0	 21.0	 -21.0	 1.07103	 9.2	 1	 42	 4.5	 0.0	 0.0	 0.0	 0.0	 0.0	 0.0	 0.0	 0.0	 0.0	 0.0	 0.0; % NG
	718	 10.0	 14.0	 17.0	 -17.0	 1.03111	 1.5	 1	 33	 0.72	 0.0	 0.0	 0.0	 0.0	 0.0	 0.0	 0.0	 0.0	 0.0	 0.0	 0.0; % PEL
	722	 10.0	 8.0	 24.0	 -24.0	 1.06069	 2.4	 1	 47	 1.125	 0.0	 0.0	 0.0	 0.0	 0.0	 0.0	 0.0	 0.0	 0.0	 0.0	 0.0; % PEL
	731	 9.0	 4.0	 9.0	 -9.0	 1.06199	 4.3	 1	 17	 0.675	 0.0	 0.0	 0.0	 0.0	 0.0	 0.0	 0.0	 0.0	 0.0	 0.0	 0.0; % PEL
	736	 137.0	 -18.0	 262.0	 -262.0	 1.08182	 255.0	 1	 524	 65.0	 0.0	 0.0	 0.0	 0.0	 0.0	 0.0	 0.0	 0.0	 0.0	 0.0	 0.0; % COW
	740	 9.0	 5.0	 18.0	 -18.0	 1.06599	 4.3	 1	 36	 0.9	 0.0	 0.0	 0.0	 0.0	 0.0	 0.0	 0.0	 0.0	 0.0	 0.0	 0.0; % PEL
	747	 13.0	 28.0	 33.6	 -33.6	 1.04853	 5.4	 1	 50	 2.34	 0.0	 0.0	 0.0	 0.0	 0.0	 0.0	 0.0	 0.0	 0.0	 0.0	 0.0; % PEL
	759	 97.0	 2.0	 88.0	 -88.0	 1.0699	 105.2	 1	 176	 45.0	 0.0	 0.0	 0.0	 0.0	 0.0	 0.0	 0.0	 0.0	 0.0	 0.0	 0.0; % NG
	760	 0.0	 0.0	 0.0	 0.0	 1.06824	 1.3	 0	 0	 0.0	 0.0	 0.0	 0.0	 0.0	 0.0	 0.0	 0.0	 0.0	 0.0	 0.0	 0.0; % SYNC
	778	 17.0	 5.0	 30.0	 -21.0	 1.05918	 31.3	 1	 42	 4.5	 0.0	 0.0	 0.0	 0.0	 0.0	 0.0	 0.0	 0.0	 0.0	 0.0	 0.0; % NG
	780	 8.0	 1.0	 7.0	 -7.0	 1.07776	 1.4	 1	 13	 0.63	 0.0	 0.0	 0.0	 0.0	 0.0	 0.0	 0.0	 0.0	 0.0	 0.0	 0.0; % PEL
	783	 13.0	 -8.0	 10.0	 -10.0	 1.07336	 6.7	 1	 19	 3.0	 0.0	 0.0	 0.0	 0.0	 0.0	 0.0	 0.0	 0.0	 0.0	 0.0	 0.0; % NG
	788	 10.0	 31.0	 37.2	 -37.2	 1.04756	 95.9	 1	 13	 1.0	 0.0	 0.0	 0.0	 0.0	 0.0	 0.0	 0.0	 0.0	 0.0	 0.0	 0.0; % PEL
	792	 0.0	 0.0	 23.0	 0.0	 1.05369	 71.8	 0	 0	 0.0	 0.0	 0.0	 0.0	 0.0	 0.0	 0.0	 0.0	 0.0	 0.0	 0.0	 0.0; % SYNC
	792	 0.0	 0.0	 23.0	 0.0	 1.05369	 71.8	 0	 0	 0.0	 0.0	 0.0	 0.0	 0.0	 0.0	 0.0	 0.0	 0.0	 0.0	 0.0	 0.0; % SYNC
	792	 0.0	 0.0	 11.0	 0.0	 1.05369	 23.7	 0	 0	 0.0	 0.0	 0.0	 0.0	 0.0	 0.0	 0.0	 0.0	 0.0	 0.0	 0.0	 0.0; % SYNC
	792	 0.0	 0.0	 10.0	 0.0	 1.05369	 23.3	 0	 0	 0.0	 0.0	 0.0	 0.0	 0.0	 0.0	 0.0	 0.0	 0.0	 0.0	 0.0	 0.0; % SYNC
	803	 8.0	 -2.0	 18.0	 -18.0	 1.08195	 55.9	 1	 35	 0.0	 0.0	 0.0	 0.0	 0.0	 0.0	 0.0	 0.0	 0.0	 0.0	 0.0	 0.0; % NG
	804	 7.0	 16.0	 19.2	 -19.2	 1.07278	 120.4	 1	 17	 0.0	 0.0	 0.0	 0.0	 0.0	 0.0	 0.0	 0.0	 0.0	 0.0	 0.0	 0.0; % NG
	809	 0.0	 0.0	 0.0	 0.0	 1.07004	 3.3	 0	 0	 0.0	 0.0	 0.0	 0.0	 0.0	 0.0	 0.0	 0.0	 0.0	 0.0	 0.0	 0.0; % SYNC
	815	 10.0	 -3.0	 25.0	 -25.0	 1.07164	 3.1	 1	 49	 1.35	 0.0	 0.0	 0.0	 0.0	 0.0	 0.0	 0.0	 0.0	 0.0	 0.0	 0.0; % PEL
	834	 10.0	 24.0	 28.8	 -28.8	 1.05238	 1.5	 1	 29	 0.45	 0.0	 0.0	 0.0	 0.0	 0.0	 0.0	 0.0	 0.0	 0.0	 0.0	 0.0; % PEL
	840	 33.0	 17.0	 51.0	 -51.0	 1.05932	 51.3	 1	 101	 12.5	 0.0	 0.0	 0.0	 0.0	 0.0	 0.0	 0.0	 0.0	 0.0	 0.0	 0.0; % NG
	840	 33.0	 17.0	 52.0	 -52.0	 1.05932	 51.3	 1	 104	 12.5	 0.0	 0.0	 0.0	 0.0	 0.0	 0.0	 0.0	 0.0	 0.0	 0.0	 0.0; % PEL
	844	 10.0	 1.0	 11.0	 -11.0	 1.07659	 3.5	 1	 21	 0.95	 0.0	 0.0	 0.0	 0.0	 0.0	 0.0	 0.0	 0.0	 0.0	 0.0	 0.0; % PEL
	848	 13.0	 8.0	 25.0	 -25.0	 1.05907	 5.6	 1	 49	 1.5055	 0.0	 0.0	 0.0	 0.0	 0.0	 0.0	 0.0	 0.0	 0.0	 0.0	 0.0; % COW
	854	 17.0	 -1.0	 35.0	 -35.0	 1.06201	 14.5	 1	 70	 3.5	 0.0	 0.0	 0.0	 0.0	 0.0	 0.0	 0.0	 0.0	 0.0	 0.0	 0.0; % COW
	873	 74.0	 5.0	 48.0	 -48.0	 1.08182	 87.7	 1	 96	 34.0	 0.0	 0.0	 0.0	 0.0	 0.0	 0.0	 0.0	 0.0	 0.0	 0.0	 0.0; % PEL
	876	 0.0	 0.0	 0.0	 0.0	 1.0397	 1.9	 0	 0	 0.0	 0.0	 0.0	 0.0	 0.0	 0.0	 0.0	 0.0	 0.0	 0.0	 0.0	 0.0; % SYNC
	896	 0.0	 0.0	 45.0	 -10.0	 1.06882	 65.8	 0	 0	 0.0	 0.0	 0.0	 0.0	 0.0	 0.0	 0.0	 0.0	 0.0	 0.0	 0.0	 0.0; % SYNC
	896	 0.0	 0.0	 45.0	 -10.0	 1.06882	 71.1	 0	 0	 0.0	 0.0	 0.0	 0.0	 0.0	 0.0	 0.0	 0.0	 0.0	 0.0	 0.0	 0.0; % SYNC
	896	 48.0	 26.0	 45.0	 -34.0	 1.06882	 71.1	 1	 67	 20.0	 0.0	 0.0	 0.0	 0.0	 0.0	 0.0	 0.0	 0.0	 0.0	 0.0	 0.0; % NG
	902	 11.0	 2.0	 27.0	 -27.0	 1.0143	 0.3	 1	 53	 0.0555	 0.0	 0.0	 0.0	 0.0	 0.0	 0.0	 0.0	 0.0	 0.0	 0.0	 0.0; % NG
...
];

%% generator cost data
%	2	startup	shutdown	n	c(n-1)	...	c0
mpc.gencost = [
	2	 0.0	 0.0	 3	   0.000000	   0.963696	   0.000000; % NG
	2	 0.0	 0.0	 3	   0.000000	   1.130923	   0.000000; % NG
	2	 0.0	 0.0	 3	   0.000000	   1.121328	   0.000000; % NG
	2	 0.0	 0.0	 3	   0.000000	   0.478953	   0.000000; % COW
	2	 0.0	 0.0	 3	   0.000000	   1.287241	   0.000000; % NG
	2	 0.0	 0.0	 3	   0.000000	   1.157959	   0.000000; % NG
	2	 0.0	 0.0	 3	   0.000000	   1.010234	   0.000000; % NG
	2	 0.0	 0.0	 3	   0.000000	   0.237262	   0.000000; % NUC
	2	 0.0	 0.0	 3	   0.000000	   0.864718	   0.000000; % NG
	2	 0.0	 0.0	 3	   0.000000	   0.934243	   0.000000; % NG
	2	 0.0	 0.0	 3	   0.000000	   0.950413	   0.000000; % COW
	2	 0.0	 0.0	 3	   0.000000	   1.050793	   0.000000; % NG
	2	 0.0	 0.0	 3	   0.000000	   1.051867	   0.000000; % NG
	2	 0.0	 0.0	 3	   0.000000	   0.680613	   0.000000; % COW
	2	 0.0	 0.0	 3	   0.000000	   1.249894	   0.000000; % NG
	2	 0.0	 0.0	 3	   0.000000	   0.942007	   0.000000; % NG
	2	 0.0	 0.0	 3	   0.000000	   0.675882	   0.000000; % COW
	2	 0.0	 0.0	 3	   0.000000	   1.468632	   0.000000; % NG
	2	 0.0	 0.0	 3	   0.000000	   0.842358	   0.000000; % NG
	2	 0.0	 0.0	 3	   0.000000	   0.676890	   0.000000; % COW
	2	 0.0	 0.0	 3	   0.000000	   0.968937	   0.000000; % NG
	2	 0.0	 0.0	 3	   0.000000	   1.176418	   0.000000; % NG
	2	 0.0	 0.0	 3	   0.000000	   1.146663	   0.000000; % NG
	2	 0.0	 0.0	 3	   0.000000	   0.980305	   0.000000; % NG
	2	 0.0	 0.0	 3	   0.000000	   1.186461	   0.000000; % NG
	2	 0.0	 0.0	 3	   0.000000	   1.098735	   0.000000; % COW
	2	 0.0	 0.0	 3	   0.000000	   1.261189	   0.000000; % COW
	2	 0.0	 0.0	 3	   0.000000	   1.247534	   0.000000; % NG
	2	 0.0	 0.0	 3	   0.000000	   1.078073	   0.000000; % NG
	2	 0.0	 0.0	 3	   0.000000	   0.859511	   0.000000; % NG
	2	 0.0	 0.0	 3	   0.000000	   1.381512	   0.000000; % NG
	2	 0.0	 0.0	 3	   0.000000	   0.956611	   0.000000; % NG
	2	 0.0	 0.0	 3	   0.000000	   0.898550	   0.000000; % NG
	2	 0.0	 0.0	 3	   0.000000	   1.141013	   0.000000; % NG
	2	 0.0	 0.0	 3	   0.000000	   1.051999	   0.000000; % NG
	2	 0.0	 0.0	 3	   0.000000	   0.716959	   0.000000; % NG
	2	 0.0	 0.0	 3	   0.000000	   1.174134	   0.000000; % NG
	2	 0.0	 0.0	 3	   0.000000	   1.050442	   0.000000; % NG
	2	 0.0	 0.0	 3	   0.000000	   0.963588	   0.000000; % NG
	2	 0.0	 0.0	 3	   0.000000	   7.196235	   0.000000; % PEL
	2	 0.0	 0.0	 3	   0.000000	   0.969433	   0.000000; % COW
	2	 0.0	 0.0	 3	   0.000000	   0.548163	   0.000000; % COW
	2	 0.0	 0.0	 3	   0.000000	   1.043773	   0.000000; % NG
	2	 0.0	 0.0	 3	   0.000000	   0.898158	   0.000000; % COW
	2	 0.0	 0.0	 3	   0.000000	   0.957052	   0.000000; % COW
	2	 0.0	 0.0	 3	   0.000000	   1.231170	   0.000000; % NG
	2	 0.0	 0.0	 3	   0.000000	   1.041788	   0.000000; % NG
	2	 0.0	 0.0	 3	   0.000000	   1.057023	   0.000000; % NG
	2	 0.0	 0.0	 3	   0.000000	   0.000000	   0.000000; % SYNC
	2	 0.0	 0.0	 3	   0.000000	   0.000000	   0.000000; % SYNC
	2	 0.0	 0.0	 3	   0.000000	   0.000000	   0.000000; % SYNC
	2	 0.0	 0.0	 3	   0.000000	   0.000000	   0.000000; % SYNC
	2	 0.0	 0.0	 3	   0.000000	   0.998622	   0.000000; % NG
	2	 0.0	 0.0	 3	   0.000000	   1.206692	   0.000000; % NG
	2	 0.0	 0.0	 3	   0.000000	   0.984334	   0.000000; % NG
	2	 0.0	 0.0	 3	   0.000000	   0.846419	   0.000000; % NG
	2	 0.0	 0.0	 3	   0.000000	   1.278788	   0.000000; % NG
	2	 0.0	 0.0	 3	   0.000000	   0.482720	   0.000000; % COW
	2	 0.0	 0.0	 3	   0.000000	   0.943293	   0.000000; % NG
	2	 0.0	 0.0	 3	   0.000000	   1.144660	   0.000000; % NG
	2	 0.0	 0.0	 3	   0.000000	   1.227671	   0.000000; % NG
	2	 0.0	 0.0	 3	   0.000000	   1.446420	   0.000000; % NG
	2	 0.0	 0.0	 3	   0.000000	   0.615648	   0.000000; % NG
	2	 0.0	 0.0	 3	   0.000000	   0.674442	   0.000000; % COW
	2	 0.0	 0.0	 3	   0.000000	   0.842425	   0.000000; % NG
	2	 0.0	 0.0	 3	   0.000000	   0.633041	   0.000000; % COW
	2	 0.0	 0.0	 3	   0.000000	   1.068568	   0.000000; % NG
	2	 0.0	 0.0	 3	   0.000000	   1.381977	   0.000000; % NG
	2	 0.0	 0.0	 3	   0.000000	   1.032527	   0.000000; % NG
	2	 0.0	 0.0	 3	   0.000000	   1.189080	   0.000000; % NG
	2	 0.0	 0.0	 3	   0.000000	   1.083509	   0.000000; % NG
	2	 0.0	 0.0	 3	   0.000000	   0.917990	   0.000000; % NG
	2	 0.0	 0.0	 3	   0.000000	   1.327980	   0.000000; % NG
	2	 0.0	 0.0	 3	   0.000000	   1.143155	   0.000000; % NG
	2	 0.0	 0.0	 3	   0.000000	   1.108208	   0.000000; % NG
	2	 0.0	 0.0	 3	   0.000000	   0.961982	   0.000000; % NG
	2	 0.0	 0.0	 3	   0.000000	   1.274245	   0.000000; % NG
	2	 0.0	 0.0	 3	   0.000000	   0.852297	   0.000000; % COW
	2	 0.0	 0.0	 3	   0.000000	   0.000000	   0.000000; % SYNC
	2	 0.0	 0.0	 3	   0.000000	   0.000000	   0.000000; % SYNC
	2	 0.0	 0.0	 3	   0.000000	   0.000000	   0.000000; % SYNC
	2	 0.0	 0.0	 3	   0.000000	   0.000000	   0.000000; % SYNC
	2	 0.0	 0.0	 3	   0.000000	   0.870579	   0.000000; % NG
	2	 0.0	 0.0	 3	   0.000000	   6.498006	   0.000000; % PEL
	2	 0.0	 0.0	 3	   0.000000	   0.932236	   0.000000; % NG
	2	 0.0	 0.0	 3	   0.000000	   1.138684	   0.000000; % NG
	2	 0.0	 0.0	 3	   0.000000	   6.615081	   0.000000; % PEL
	2	 0.0	 0.0	 3	   0.000000	   0.645274	   0.000000; % COW
	2	 0.0	 0.0	 3	   0.000000	   7.085532	   0.000000; % PEL
	2	 0.0	 0.0	 3	   0.000000	   1.121909	   0.000000; % COW
	2	 0.0	 0.0	 3	   0.000000	   6.105223	   0.000000; % PEL
	2	 0.0	 0.0	 3	   0.000000	   6.829616	   0.000000; % PEL
	2	 0.0	 0.0	 3	   0.000000	   1.063611	   0.000000; % NG
	2	 0.0	 0.0	 3	   0.000000	   6.656304	   0.000000; % PEL
	2	 0.0	 0.0	 3	   0.000000	   6.819918	   0.000000; % PEL
	2	 0.0	 0.0	 3	   0.000000	   1.073056	   0.000000; % NG
	2	 0.0	 0.0	 3	   0.000000	   1.093315	   0.000000; % NG
	2	 0.0	 0.0	 3	   0.000000	   1.195461	   0.000000; % NG
	2	 0.0	 0.0	 3	   0.000000	   7.805340	   0.000000; % PEL
	2	 0.0	 0.0	 3	   0.000000	   6.759337	   0.000000; % PEL
	2	 0.0	 0.0	 3	   0.000000	   0.806669	   0.000000; % NG
	2	 0.0	 0.0	 3	   0.000000	   0.974285	   0.000000; % NG
	2	 0.0	 0.0	 3	   0.000000	   6.808777	   0.000000; % PEL
	2	 0.0	 0.0	 3	   0.000000	   0.720524	   0.000000; % NG
	2	 0.0	 0.0	 3	   0.000000	   6.095436	   0.000000; % PEL
	2	 0.0	 0.0	 3	   0.000000	   7.025036	   0.000000; % PEL
	2	 0.0	 0.0	 3	   0.000000	   0.690056	   0.000000; % COW
	2	 0.0	 0.0	 3	   0.000000	   1.381043	   0.000000; % NG
	2	 0.0	 0.0	 3	   0.000000	   0.000000	   0.000000; % SYNC
	2	 0.0	 0.0	 3	   0.000000	   7.389342	   0.000000; % PEL
	2	 0.0	 0.0	 3	   0.000000	   1.009632	   0.000000; % COW
	2	 0.0	 0.0	 3	   0.000000	   7.274290	   0.000000; % PEL
	2	 0.0	 0.0	 3	   0.000000	   6.276815	   0.000000; % PEL
	2	 0.0	 0.0	 3	   0.000000	   1.169097	   0.000000; % NG
	2	 0.0	 0.0	 3	   0.000000	   1.007536	   0.000000; % NG
	2	 0.0	 0.0	 3	   0.000000	   6.826558	   0.000000; % PEL
	2	 0.0	 0.0	 3	   0.000000	   0.940431	   0.000000; % NG
	2	 0.0	 0.0	 3	   0.000000	   6.417556	   0.000000; % PEL
	2	 0.0	 0.0	 3	   0.000000	   0.730685	   0.000000; % NG
	2	 0.0	 0.0	 3	   0.000000	   6.975165	   0.000000; % PEL
	2	 0.0	 0.0	 3	   0.000000	   7.338689	   0.000000; % PEL
	2	 0.0	 0.0	 3	   0.000000	   6.583553	   0.000000; % PEL
	2	 0.0	 0.0	 3	   0.000000	   1.219213	   0.000000; % NG
	2	 0.0	 0.0	 3	   0.000000	   7.205809	   0.000000; % PEL
	2	 0.0	 0.0	 3	   0.000000	   0.000000	   0.000000; % SYNC
	2	 0.0	 0.0	 3	   0.000000	   7.287654	   0.000000; % PEL
	2	 0.0	 0.0	 3	   0.000000	   7.146718	   0.000000; % PEL
	2	 0.0	 0.0	 3	   0.000000	   0.000000	   0.000000; % SYNC
	2	 0.0	 0.0	 3	   0.000000	   6.279604	   0.000000; % PEL
	2	 0.0	 0.0	 3	   0.000000	   1.464000	   0.000000; % NG
	2	 0.0	 0.0	 3	   0.000000	   1.087828	   0.000000; % NG
	2	 0.0	 0.0	 3	   0.000000	   6.642655	   0.000000; % PEL
	2	 0.0	 0.0	 3	   0.000000	   1.252492	   0.000000; % NG
	2	 0.0	 0.0	 3	   0.000000	   7.145183	   0.000000; % PEL
	2	 0.0	 0.0	 3	   0.000000	   0.785382	   0.000000; % NG
	2	 0.0	 0.0	 3	   0.000000	   6.685137	   0.000000; % PEL
	2	 0.0	 0.0	 3	   0.000000	   0.640479	   0.000000; % COW
	2	 0.0	 0.0	 3	   0.000000	   0.603584	   0.000000; % NG
	2	 0.0	 0.0	 3	   0.000000	   6.990098	   0.000000; % PEL
	2	 0.0	 0.0	 3	   0.000000	   1.081268	   0.000000; % NG
	2	 0.0	 0.0	 3	   0.000000	   1.273712	   0.000000; % NG
	2	 0.0	 0.0	 3	   0.000000	   1.202691	   0.000000; % NG
	2	 0.0	 0.0	 3	   0.000000	   6.849970	   0.000000; % PEL
	2	 0.0	 0.0	 3	   0.000000	   1.159285	   0.000000; % NG
	2	 0.0	 0.0	 3	   0.000000	   1.353728	   0.000000; % NG
	2	 0.0	 0.0	 3	   0.000000	   1.131133	   0.000000; % NG
	2	 0.0	 0.0	 3	   0.000000	   0.713440	   0.000000; % NG
	2	 0.0	 0.0	 3	   0.000000	   6.796397	   0.000000; % PEL
	2	 0.0	 0.0	 3	   0.000000	   6.500755	   0.000000; % PEL
	2	 0.0	 0.0	 3	   0.000000	   7.117342	   0.000000; % PEL
	2	 0.0	 0.0	 3	   0.000000	   6.572951	   0.000000; % PEL
	2	 0.0	 0.0	 3	   0.000000	   1.267053	   0.000000; % NG
	2	 0.0	 0.0	 3	   0.000000	   0.000000	   0.000000; % SYNC
	2	 0.0	 0.0	 3	   0.000000	   7.049498	   0.000000; % PEL
	2	 0.0	 0.0	 3	   0.000000	   1.035730	   0.000000; % NG
	2	 0.0	 0.0	 3	   0.000000	   1.103377	   0.000000; % NG
	2	 0.0	 0.0	 3	   0.000000	   1.070417	   0.000000; % NG
	2	 0.0	 0.0	 3	   0.000000	   1.209122	   0.000000; % NG
	2	 0.0	 0.0	 3	   0.000000	   0.974489	   0.000000; % COW
	2	 0.0	 0.0	 3	   0.000000	   6.244319	   0.000000; % PEL
	2	 0.0	 0.0	 3	   0.000000	   0.483402	   0.000000; % COW
	2	 0.0	 0.0	 3	   0.000000	   6.752414	   0.000000; % PEL
	2	 0.0	 0.0	 3	   0.000000	   0.864212	   0.000000; % NG
	2	 0.0	 0.0	 3	   0.000000	   0.806911	   0.000000; % NG
	2	 0.0	 0.0	 3	   0.000000	   1.209705	   0.000000; % NG
	2	 0.0	 0.0	 3	   0.000000	   7.048557	   0.000000; % PEL
	2	 0.0	 0.0	 3	   0.000000	   0.962039	   0.000000; % NG
	2	 0.0	 0.0	 3	   0.000000	   1.166686	   0.000000; % NG
	2	 0.0	 0.0	 3	   0.000000	   6.877897	   0.000000; % PEL
	2	 0.0	 0.0	 3	   0.000000	   6.326810	   0.000000; % PEL
	2	 0.0	 0.0	 3	   0.000000	   6.657300	   0.000000; % PEL
	2	 0.0	 0.0	 3	   0.000000	   0.718126	   0.000000; % COW
	2	 0.0	 0.0	 3	   0.000000	   7.069126	   0.000000; % PEL
	2	 0.0	 0.0	 3	   0.000000	   7.215255	   0.000000; % PEL
	2	 0.0	 0.0	 3	   0.000000	   0.885742	   0.000000; % NG
	2	 0.0	 0.0	 3	   0.000000	   0.000000	   0.000000; % SYNC
	2	 0.0	 0.0	 3	   0.000000	   1.221733	   0.000000; % NG
	2	 0.0	 0.0	 3	   0.000000	   6.717653	   0.000000; % PEL
	2	 0.0	 0.0	 3	   0.000000	   0.988616	   0.000000; % NG
	2	 0.0	 0.0	 3	   0.000000	   6.827419	   0.000000; % PEL
	2	 0.0	 0.0	 3	   0.000000	   0.000000	   0.000000; % SYNC
	2	 0.0	 0.0	 3	   0.000000	   0.000000	   0.000000; % SYNC
	2	 0.0	 0.0	 3	   0.000000	   0.000000	   0.000000; % SYNC
	2	 0.0	 0.0	 3	   0.000000	   0.000000	   0.000000; % SYNC
	2	 0.0	 0.0	 3	   0.000000	   0.995928	   0.000000; % NG
	2	 0.0	 0.0	 3	   0.000000	   0.915879	   0.000000; % NG
	2	 0.0	 0.0	 3	   0.000000	   0.000000	   0.000000; % SYNC
	2	 0.0	 0.0	 3	   0.000000	   7.111867	   0.000000; % PEL
	2	 0.0	 0.0	 3	   0.000000	   7.059148	   0.000000; % PEL
	2	 0.0	 0.0	 3	   0.000000	   1.130395	   0.000000; % NG
	2	 0.0	 0.0	 3	   0.000000	   6.860524	   0.000000; % PEL
	2	 0.0	 0.0	 3	   0.000000	   6.956510	   0.000000; % PEL
	2	 0.0	 0.0	 3	   0.000000	   0.569349	   0.000000; % COW
	2	 0.0	 0.0	 3	   0.000000	   0.571811	   0.000000; % COW
	2	 0.0	 0.0	 3	   0.000000	   6.726634	   0.000000; % PEL
	2	 0.0	 0.0	 3	   0.000000	   0.000000	   0.000000; % SYNC
	2	 0.0	 0.0	 3	   0.000000	   0.000000	   0.000000; % SYNC
	2	 0.0	 0.0	 3	   0.000000	   0.000000	   0.000000; % SYNC
	2	 0.0	 0.0	 3	   0.000000	   0.989021	   0.000000; % NG
	2	 0.0	 0.0	 3	   0.000000	   1.233796	   0.000000; % NG
...
];

%% branch data
%	fbus	tbus	r	x	b	rateA	rateB	rateC	ratio	angle	status	angmin	angmax
mpc.branch = [
	7	 8	 0.00064	 0.0305	 0.0	 400.0	 400.0	 400.0	 1.0435	 -0.6	 1	 -30.0	 30.0;
	26	 28	 0.00036	 0.02519	 0.0	 500.0	 500.0	 500.0	 1.0627	 0.0	 1	 -30.0	 30.0;
	27	 29	 0.00036	 0.02519	 0.0	 500.0	 500.0	 500.0	 1.0623	 0.0	 1	 -30.0	 30.0;
	40	 42	 0.00034	 0.02097	 0.0	 500.0	 500.0	 500.0	 1.1011	 0.0	 1	 -30.0	 30.0;
	43	 46	 0.00034	 0.02097	 0.0	 500.0	 500.0	 500.0	 1.0733	 0.0	 1	 -30.0	 30.0;
	55	 57	 0.00081	 0.03	 0.0	 400.0	 400.0	 400.0	 1.0547	 0.0	 1	 -30.0	 30.0;
	90	 92	 0.00075	 0.02444	 -0.00832	 330.0	 330.0	 330.0	 1.0508	 0.0	 1	 -30.0	 30.0;
	91	 93	 0.00075	 0.02469	 -0.008	 330.0	 330.0	 330.0	 1.0499	 0.0	 1	 -30.0	 30.0;
	125	 128	 0.0005	 0.02875	 -0.016	 400.0	 400.0	 400.0	 1.0677	 0.0	 1	 -30.0	 30.0;
	149	 150	 0.00064	 0.0305	 0.0	 400.0	 400.0	 400.0	 1.0568	 0.0	 1	 -30.0	 30.0;
	155	 158	 0.000232	 0.023	 0.0	 500.0	 500.0	 500.0	 1.049	 0.0	 1	 -30.0	 30.0;
	156	 159	 0.000232	 0.023	 0.0	 500.0	 500.0	 500.0	 1.0479	 0.0	 1	 -30.0	 30.0;
	170	 172	 0.00035	 0.02375	 0.0	 500.0	 500.0	 500.0	 1.195	 0.0	 1	 -30.0	 30.0;
	183	 184	 0.00059	 0.03093	 0.0	 400.0	 400.0	 400.0	 1.0847	 0.0	 1	 -30.0	 30.0;
	190	 192	 0.0004	 0.03	 0.0	 500.0	 500.0	 500.0	 1.0485	 0.0	 1	 -30.0	 30.0;
	2735	 158	 0.00031	 0.00338	 0.0992	 1386.0	 1386.0	 1386.0	 0.0	 0.0	 1	 -30.0	 30.0;
	2735	 159	 0.00031	 0.00338	 0.0992	 1386.0	 1386.0	 1386.0	 0.0	 0.0	 1	 -30.0	 30.0;
	2736	 68	 0.014341	 0.083531	 0.126034	 415.0	 415.0	 415.0	 0.0	 0.0	 1	 -30.0	 30.0;
	2734	 76	 0.01219	 0.070659	 0.117418	 412.0	 412.0	 412.0	 0.0	 0.0	 1	 -30.0	 30.0;
	2734	 105	 0.011781	 0.07087	 0.116838	 412.0	 412.0	 412.0	 0.0	 0.0	 1	 -30.0	 30.0;
	2739	 200	 1e-05	 9e-05	 0.0	 924.0	 924.0	 924.0	 0.0	 0.0	 1	 -30.0	 30.0;
	128	 2732	 0.0015	 0.01469	 0.40384	 1386.0	 1386.0	 1386.0	 0.0	 0.0	 0	 -30.0	 30.0;
	127	 2733	 0.001419	 0.014675	 0.4896	 1386.0	 1386.0	 1386.0	 0.0	 0.0	 1	 -30.0	 30.0;
	2737	 148	 0.001651	 0.015909	 0.046948	 373.0	 373.0	 373.0	 0.0	 0.0	 1	 -30.0	 30.0;
	2737	 149	 0.001651	 0.015909	 0.046948	 373.0	 373.0	 373.0	 0.0	 0.0	 1	 -30.0	 30.0;
	2738	 48	 0.00188	 0.02287	 0.6432	 831.0	 831.0	 831.0	 0.0	 0.0	 1	 -30.0	 30.0;
	2738	 49	 0.00188	 0.02287	 0.6432	 831.0	 831.0	 831.0	 0.0	 0.0	 1	 -30.0	 30.0;
	82	 2732	 0.003519	 0.039313	 1.0336	 1621.0	 1621.0	 1621.0	 0.0	 0.0	 1	 -30.0	 30.0;
	43	 23	 0.01345	 0.081141	 0.141134	 339.0	 339.0	 339.0	 0.0	 0.0	 1	 -30.0	 30.0;
	26	 90	 0.009091	 0.062401	 0.111417	 457.0	 457.0	 457.0	 0.0	 0.0	 1	 -30.0	 30.0;
	27	 91	 0.00868	 0.06405	 0.096994	 457.0	 457.0	 457.0	 0.0	 0.0	 1	 -30.0	 30.0;
	146	 30	 0.016961	 0.123659	 0.196988	 373.0	 373.0	 373.0	 0.0	 0.0	 1	 -30.0	 30.0;
	135	 34	 0.00512	 0.02618	 0.029621	 335.0	 335.0	 335.0	 0.0	 0.0	 1	 -30.0	 30.0;
	134	 20	 0.01068	 0.061961	 0.094961	 415.0	 415.0	 415.0	 0.0	 0.0	 1	 -30.0	 30.0;
	165	 21	 0.014651	 0.105891	 0.170852	 373.0	 373.0	 373.0	 0.0	 0.0	 1	 -30.0	 30.0;
	41	 109	 0.01488	 0.08161	 0.114805	 347.0	 347.0	 347.0	 0.0	 0.0	 1	 -30.0	 30.0;
	40	 91	 0.011159	 0.07231	 0.103673	 362.0	 362.0	 362.0	 0.0	 0.0	 1	 -30.0	 30.0;
	179	 83	 0.008616	 0.077645	 0.122239	 373.0	 373.0	 373.0	 0.0	 0.0	 1	 -30.0	 30.0;
	203	 166	 0.01176	 0.068289	 0.102802	 362.0	 362.0	 362.0	 0.0	 0.0	 1	 -30.0	 30.0;
	194	 166	 0.016818	 0.089091	 0.129935	 400.0	 400.0	 400.0	 0.0	 0.0	 1	 -30.0	 30.0;
	193	 165	 0.013843	 0.087025	 0.134842	 427.0	 427.0	 427.0	 0.0	 0.0	 1	 -30.0	 30.0;
	207	 168	 0.01676	 0.097169	 0.148685	 274.0	 274.0	 274.0	 0.0	 0.0	 1	 -30.0	 30.0;
	43	 12	 0.01269	 0.074979	 0.130196	 377.0	 377.0	 377.0	 0.0	 0.0	 1	 -30.0	 30.0;
	198	 18	 0.014091	 0.10413	 0.15972	 373.0	 373.0	 373.0	 0.0	 0.0	 1	 -30.0	 30.0;
	100	 55	 0.003719	 0.0438	 0.100962	 457.0	 457.0	 457.0	 0.0	 0.0	 1	 -30.0	 30.0;
	163	 82	 0.00194	 0.02056	 0.51584	 1316.0	 1316.0	 1316.0	 0.0	 0.0	 1	 -30.0	 30.0;
	45	 9	 0.0015	 0.01506	 0.4032	 1386.0	 1386.0	 1386.0	 0.0	 0.0	 1	 -30.0	 30.0;
	185	 151	 0.00294	 0.03463	 0.9216	 693.0	 693.0	 693.0	 0.0	 0.0	 1	 -30.0	 30.0;
	121	 57	 0.00169	 0.01994	 0.50624	 831.0	 831.0	 831.0	 0.0	 0.0	 1	 -30.0	 30.0;
	29	 93	 0.00137	 0.01625	 0.41184	 1386.0	 1386.0	 1386.0	 0.0	 0.0	 1	 -30.0	 30.0;
	28	 123	 0.00231	 0.02769	 0.70144	 1386.0	 1386.0	 1386.0	 0.0	 0.0	 1	 -30.0	 30.0;
	25	 192	 0.00207	 0.02474	 0.664	 831.0	 831.0	 831.0	 0.0	 0.0	 1	 -30.0	 30.0;
	120	 64	 0.0015	 0.01788	 0.4512	 831.0	 831.0	 831.0	 0.0	 0.0	 1	 -30.0	 30.0;
	122	 65	 0.00469	 0.05544	 1.4048	 831.0	 831.0	 831.0	 0.0	 0.0	 0	 -30.0	 30.0;
	82	 31	 0.00331	 0.03425	 0.85888	 1150.0	 1150.0	 1150.0	 0.0	 0.0	 1	 -30.0	 30.0;
	92	 28	 0.00219	 0.02369	 0.59584	 1316.0	 1316.0	 1316.0	 0.0	 0.0	 1	 -30.0	 30.0;
...